EOS100353
  SciTegic04282016392D

 17 17  0  0  0  0            999 V2000
    3.3986    0.8084    0.0000 C   0  0
    3.3974   -0.0190    0.0000 C   0  0
    4.1122   -0.4319    0.0000 C   0  0
    4.8287   -0.0185    0.0000 C   0  0
    4.8258    0.8120    0.0000 C   0  0
    4.1104    1.2211    0.0000 C   0  0
    2.6826   -0.4309    0.0000 N   0  0
    1.9685   -0.0179    0.0000 C   0  0
    1.2537   -0.4298    0.0000 C   0  0
    5.5438   -0.4299    0.0000 O   0  0
    5.5451   -1.2549    0.0000 C   0  0
    6.2602   -1.6663    0.0000 C   0  0
    5.5387    1.2272    0.0000 C   0  0
    6.2547    0.8174    0.0000 O   0  0
    5.5356    2.0522    0.0000 O   0  0
    6.9677    1.2326    0.0000 C   0  0
    1.9691    0.8071    0.0000 O   0  0
  8  9  1  0
  4  5  2  0
  4 10  1  0
  2  3  2  0
 10 11  1  0
  5  6  1  0
 11 12  1  0
  6  1  2  0
  5 13  1  0
  1  2  1  0
 13 14  1  0
  2  7  1  0
 13 15  2  0
  3  4  1  0
 14 16  1  0
  7  8  1  0
  8 17  2  0
M  END
> <Library>
Bioactives

> <Batch>
2012

> <PLATE>
B1002L2012M01

> <WELL>
A1

> <EOS>
EOS100353

> <CCMF_source_vial_barcode>
LV2001695588

> <concentration_mM>
10

> <volume_ul>
30

$$$$
EOS100354
  SciTegic04282016392D

 28 31  0  0  1  0            999 V2000
   -1.3805   -0.4299    0.0000 C   0  0  1  0  0  0
    0.7654    0.8038    0.0000 C   0  0  2  0  0  0
    1.5449    1.0450    0.0000 C   0  0  1  0  0  0
   -1.3805   -1.2582    0.0000 C   0  0
    0.0559   -0.4299    0.0000 C   0  0  2  0  0  0
   -0.6606   -0.0210    0.0000 C   0  0  2  0  0  0
    0.7654   -0.0210    0.0000 C   0  0  2  0  0  0
    0.0559   -1.2582    0.0000 C   0  0
   -2.0935   -1.6776    0.0000 C   0  0
   -0.6606   -1.6776    0.0000 C   0  0  2  0  0  0
    0.0315    1.2233    0.0000 C   0  0
    2.0167    0.3949    0.0000 C   0  0
    2.2229    1.5309    0.0000 O   0  0
   -0.6711    0.8038    0.0000 C   0  0
    1.5449   -0.2657    0.0000 C   0  0
   -2.0935   -0.0210    0.0000 C   0  0
    1.3876    1.8769    0.0000 C   0  0
    2.9813    1.1918    0.0000 C   0  0
   -2.8065   -1.2582    0.0000 C   0  0
    3.0722    0.3635    0.0000 O   0  0
    2.0062    2.4116    0.0000 O   0  0
   -3.5405   -1.6881    0.0000 O   0  0
   -2.8065   -0.4299    0.0000 C   0  0
   -1.3805    0.3949    0.0000 C   0  0
    0.9682    1.5938    0.0000 C   0  0
   -0.6711   -2.5060    0.0000 C   0  0
    3.6419    1.6636    0.0000 C   0  0
    0.6012    2.1355    0.0000 C   0  0
  2 11  1  0
  2  3  1  0
  1  4  1  0
  5  6  1  0
  6  1  1  0
  7  5  1  0
  5  8  1  6
  9  4  2  0
 10  4  1  0
 11 14  1  0
 12 15  1  0
  3 13  1  6
  6 14  1  1
  7 15  1  1
  1 16  1  0
  3 17  1  1
 18 13  1  0
 19 23  1  0
 20 18  2  0
 21 17  2  0
 22 19  2  0
 23 16  1  0
  1 24  1  1
  2 25  1  1
 10 26  1  6
 27 18  1  0
 28 17  1  0
 10  8  1  0
  9 19  1  0
  2  7  1  0
  3 12  1  0
M  END
> <Library>
Bioactives

> <Batch>
2012

> <PLATE>
B1002L2012M01

> <WELL>
C1

> <EOS>
EOS100354

> <CCMF_source_vial_barcode>
LV2001695597

> <concentration_mM>
10

> <volume_ul>
30

$$$$
EOS100355
  SciTegic04282016392D

 18 19  0  0  0  0            999 V2000
    2.8570    2.0365    0.0000 S   0  0
    3.5691    2.4530    0.0000 N   0  0
    4.2855    2.0491    0.0000 C   0  0
    4.2855    1.2244    0.0000 N   0  0
    2.1448    1.6243    0.0000 C   0  0
    3.2735    1.3244    0.0000 O   0  0
    2.4363    2.7487    0.0000 O   0  0
    4.9851    2.4739    0.0000 N   0  0
    1.4244    2.0365    0.0000 C   0  0
    2.1448    0.7913    0.0000 C   0  0
    5.0059    0.8246    0.0000 C   0  0
    5.7056    2.0657    0.0000 C   0  0
    0.7122    0.7913    0.0000 C   0  0
    0.0000    0.3790    0.0000 N   0  0
    5.7098    1.2369    0.0000 C   0  0
    0.7122    1.6160    0.0000 C   0  0
    1.4244    0.3790    0.0000 C   0  0
    5.0102    0.0000    0.0000 C   0  0
  2  1  1  0
  3  2  1  0
  4  3  2  0
  5  1  1  0
  6  1  2  0
  7  1  2  0
  8  3  1  0
  9  5  2  0
 10  5  1  0
 11  4  1  0
 12  8  2  0
 13 17  1  0
 14 13  1  0
 15 12  1  0
 16  9  1  0
 17 10  2  0
 18 11  1  0
 16 13  2  0
 11 15  2  0
M  END
> <Library>
Bioactives

> <Batch>
2012

> <PLATE>
B1002L2012M01

> <WELL>
E1

> <EOS>
EOS100355

> <CCMF_source_vial_barcode>
LV2001695587

> <concentration_mM>
10

> <volume_ul>
30

$$$$
EOS100356
  SciTegic04282016392D

 22 24  0  0  0  0            999 V2000
    1.3538   -3.1508    0.0000 N   0  0
    0.6394   -2.7383    0.0000 C   0  0
    0.6394   -1.9133    0.0000 C   0  0
    1.3538   -1.5008    0.0000 C   0  0
    2.0683   -1.9133    0.0000 C   0  0
    2.7828   -1.5008    0.0000 C   0  0
    3.4972   -1.9133    0.0000 C   0  0
    3.4972   -2.7383    0.0000 C   0  0
    2.7828   -3.1508    0.0000 C   0  0
    2.0683   -2.7383    0.0000 C   0  0
    2.7828   -0.6758    0.0000 O   0  0
    2.7828   -3.9758    0.0000 O   0  0
    4.2117   -3.1508    0.0000 N   0  0
    4.9262   -2.7383    0.0000 C   0  0
    5.6407   -3.1508    0.0000 C   0  0
    6.3551   -2.7383    0.0000 N   0  0
    6.3551   -1.9133    0.0000 C   0  0
    7.0696   -1.5008    0.0000 C   0  0
    7.7841   -1.9133    0.0000 O   0  0
    7.7841   -2.7383    0.0000 C   0  0
    7.0696   -3.1508    0.0000 C   0  0
    4.2117   -1.5008    0.0000 Cl  0  0
  1  2  2  0
  2  3  1  0
  3  4  2  0
  4  5  1  0
  5  6  1  0
  6  7  1  0
  7  8  2  0
  8  9  1  0
  9 10  1  0
  1 10  1  0
  5 10  2  0
  6 11  2  0
  9 12  2  0
 14 15  1  0
 16 17  1  0
 17 18  1  0
 18 19  1  0
 19 20  1  0
 20 21  1  0
 16 21  1  0
 15 16  1  0
 13 14  1  0
  8 13  1  0
  7 22  1  0
M  END
> <Library>
Bioactives

> <Batch>
2012

> <PLATE>
B1002L2012M01

> <WELL>
G1

> <EOS>
EOS100356

> <CCMF_source_vial_barcode>
LV2001695586

> <concentration_mM>
10

> <volume_ul>
30

$$$$
EOS100357
  SciTegic04282016392D

 29 30  0  0  1  0            999 V2000
    4.7777   -2.3732    0.0000 N   0  0
    4.7777   -3.3101    0.0000 C   0  0  1  0  0  0
    4.0595   -1.9673    0.0000 C   0  0
    0.8431   -4.2781    0.0000 P   0  0
    4.0595   -1.1866    0.0000 N   0  0
    4.4966   -4.0907    0.0000 C   0  0  1  0  0  0
    4.0907   -2.7792    0.0000 O   0  0
    0.8431   -3.4350    0.0000 O   0  0
    0.8431   -5.1212    0.0000 O   0  0
    1.5614   -3.0290    0.0000 P   0  0
    1.5614   -5.5272    0.0000 P   0  0
    5.4647   -1.9673    0.0000 C   0  0
    3.3725   -3.2788    0.0000 C   0  0  1  0  0  0
    3.6223   -4.0907    0.0000 C   0  0  1  0  0  0
    5.4647   -1.1866    0.0000 C   0  0
    4.7777   -0.7807    0.0000 C   0  0
    2.8104   -3.0602    0.0000 C   0  0
    1.6550   -4.2781    0.0000 O   0  0
    3.3725   -2.4045    0.0000 O   0  0
    2.2795   -2.6230    0.0000 O   0  0
    1.9673   -3.7472    0.0000 O   0  0
    1.9673   -4.8089    0.0000 O   0  0
    0.0000   -4.2781    0.0000 O   0  0
    4.7777    0.0000    0.0000 O   0  0
    4.9650   -4.8089    0.0000 O   0  0
    1.1242   -2.3108    0.0000 O   0  0
    2.2795   -5.9331    0.0000 O   0  0
    1.1554   -6.2453    0.0000 O   0  0
    3.1227   -4.7465    0.0000 O   0  0
  2  1  1  0
  1  3  1  0
  1 12  1  0
  6  2  1  0
  2  7  1  6
  3  5  1  0
  3 19  2  0
  4  8  1  0
  4  9  1  0
  4 18  2  0
  4 23  1  0
  5 16  1  0
  6 14  1  0
  6 25  1  6
 13  7  1  0
  8 10  1  0
  9 11  1  0
 10 20  1  0
 10 21  2  0
 10 26  1  0
 11 22  2  0
 11 27  1  0
 11 28  1  0
 12 15  2  0
 13 17  1  1
 14 13  1  0
 14 29  1  6
 15 16  1  0
 16 24  2  0
 17 20  1  0
M  END
> <Library>
Bioactives

> <Batch>
2012

> <PLATE>
B1002L2012M01

> <WELL>
I1

> <EOS>
EOS100357

> <CCMF_source_vial_barcode>
LV2001696200

> <concentration_mM>
10

> <volume_ul>
30

$$$$
EOS100358
  SciTegic04282016392D

 24 26  0  0  0  0            999 V2000
    4.9664   -4.5063    0.0000 N   0  0
    4.1456   -4.5063    0.0000 C   0  0
    4.1456   -3.6813    0.0000 C   0  0  2  0  0  0
    4.9664   -3.6813    0.0000 C   0  0  1  0  0  0
    5.6836   -4.9167    0.0000 C   0  0
    3.5611   -3.1009    0.0000 N   0  0
    5.6836   -3.2626    0.0000 S   0  0
    3.7725   -2.3132    0.0000 C   0  0
    6.3966   -4.5063    0.0000 C   0  0
    5.6836   -5.7375    0.0000 C   0  0
    3.1838   -1.7287    0.0000 C   0  0  1  0  0  0
    6.3966   -3.6813    0.0000 C   0  0
    3.5611   -5.0908    0.0000 O   0  0
    4.5560   -2.0935    0.0000 O   0  0
    6.3966   -6.1562    0.0000 O   0  0
    3.3870   -0.9369    0.0000 C   0  0
    2.3796   -1.9443    0.0000 N   0  0
    4.9664   -6.1562    0.0000 O   0  0
    7.1180   -4.9249    0.0000 C   0  0
    4.1829   -0.7213    0.0000 C   0  0
    2.8024   -0.3524    0.0000 C   0  0
    3.0097    0.4435    0.0000 C   0  0
    4.3943    0.0580    0.0000 C   0  0
    3.8098    0.6550    0.0000 C   0  0
  2  1  1  0
  4  3  1  0
  4  1  1  0
  5  1  1  0
  3  6  1  1
  4  7  1  1
  8  6  1  0
  9  5  2  0
 10  5  1  0
 11  8  1  0
 12  9  1  0
 13  2  2  0
 14  8  2  0
 15 10  2  0
 11 16  1  0
 11 17  1  6
 18 10  1  0
 19  9  1  0
 20 16  2  0
 21 16  1  0
 22 21  2  0
 23 20  1  0
 24 22  1  0
  3  2  1  0
 12  7  1  0
 24 23  2  0
M  END
> <Library>
Bioactives

> <Batch>
2012

> <PLATE>
B1002L2012M01

> <WELL>
K1

> <EOS>
EOS100358

> <CCMF_source_vial_barcode>
LV2001695589

> <concentration_mM>
10

> <volume_ul>
30

$$$$
EOS100359
  SciTegic04282016392D

 36 37  0  0  0  0            999 V2000
   -5.5428    1.5463    0.0000 C   0  0
    0.1592    1.5463    0.0000 C   0  0
   -6.2534    2.7970    0.0000 C   0  0
    0.8585    2.7913    0.0000 C   0  0
   -4.8378    1.9556    0.0000 C   0  0
   -0.5741    1.9385    0.0000 C   0  0
    0.8698    1.9726    0.0000 C   0  0
   -6.2534    1.9556    0.0000 C   0  0
   -5.5428    3.2063    0.0000 O   0  0
    0.1364    3.1835    0.0000 O   0  0
   -0.5628    2.7571    0.0000 C   0  0
   -4.8378    2.7970    0.0000 C   0  0
   -6.9867    3.2063    0.0000 C   0  0
    1.5690    3.2063    0.0000 C   0  0
   -1.2904    1.5292    0.0000 C   0  0
   -4.1215    1.5463    0.0000 C   0  0
    0.1592    0.7276    0.0000 O   0  0
   -5.5428    0.7276    0.0000 O   0  0
   -6.9867    4.0363    0.0000 O   0  5
    2.2342    2.7571    0.0000 O   0  5
   -4.1215    0.7276    0.0000 O   0  0
   -1.2904    0.7106    0.0000 O   0  0
    1.5690    4.0533    0.0000 O   0  0
   -7.7030    2.7970    0.0000 O   0  0
   -2.7060    0.7276    0.0000 C   0  0
   -3.4280    0.3183    0.0000 C   0  0
   -1.9954    0.3013    0.0000 C   0  0
   -1.3132    3.1665    0.0000 C   0  0
   -4.1215    3.2063    0.0000 C   0  0
    3.4337    1.5690    0.0000 Na  0  3
   -7.8906    1.1199    0.0000 Na  0  3
   -2.1148    1.3644    0.0000 O   0  0
   -3.4110    2.7970    0.0000 C   0  0
   -2.0067    2.7571    0.0000 C   0  0
   -1.9954    1.9272    0.0000 C   0  0
   -3.4110    1.9556    0.0000 C   0  0
  2  6  1  0
  3  8  2  0
  4 10  1  0
  5  1  1  0
  6 15  2  0
  7  2  1  0
  8  1  1  0
  9  3  1  0
 10 11  1  0
 11  6  1  0
 12  5  1  0
 13  3  1  0
 14  4  1  0
 15 22  1  0
 16  5  2  0
 17  2  2  0
 18  1  2  0
 19 13  1  0
 20 14  1  0
 21 16  1  0
 22 27  1  0
 23 14  2  0
 24 13  2  0
 25 26  1  0
 26 21  1  0
 27 25  1  0
 28 34  1  0
 29 12  2  0
 32 25  1  0
 33 36  2  0
 34 35  2  0
 35 15  1  0
 36 16  1  0
 12  9  1  0
 29 33  1  0
 11 28  2  0
  7  4  2  0
M  CHG  4  19  -1  20  -1  30   1  31   1
M  END
> <Library>
Bioactives

> <Batch>
2012

> <PLATE>
B1002L2012M01

> <WELL>
M1

> <EOS>
EOS100359

> <CCMF_source_vial_barcode>
LV2001696214

> <concentration_mM>
10

> <volume_ul>
30

$$$$
EOS100360
  SciTegic04282016392D

 10  9  0  0  0  0            999 V2000
    4.8667   -3.5792    0.0000 C   0  0  2  0  0  0
    4.8667   -4.4042    0.0000 C   0  0  1  0  0  0
    5.5787   -4.8125    0.0000 C   0  0
    6.2907   -4.4042    0.0000 O   0  0
    6.2907   -3.5792    0.0000 O   0  0
    5.5787   -3.1625    0.0000 C   0  0
    5.5787   -2.3375    0.0000 O   0  0
    5.5787   -5.6375    0.0000 O   0  0
    4.1510   -3.1688    0.0000 S   0  0
    4.1528   -4.8177    0.0000 S   0  0
  3  4  2  0
  5  6  1  0
  6  7  2  0
  1  2  1  0
  3  8  1  0
  1  6  1  0
  1  9  1  1
  2  3  1  0
  2 10  1  1
M  END
> <Library>
Bioactives

> <Batch>
2012

> <PLATE>
B1002L2012M01

> <WELL>
O1

> <EOS>
EOS100360

> <CCMF_source_vial_barcode>
LV2001695600

> <concentration_mM>
10

> <volume_ul>
30

$$$$
EOS100361
  SciTegic04282016392D

 14 14  0  0  0  0            999 V2000
   -1.0716    0.4163    0.0000 C   0  0
   -1.7861    0.0039    0.0000 C   0  0
   -1.7861   -0.8213    0.0000 C   0  0
   -1.0716   -1.2378    0.0000 C   0  0
   -0.3571   -0.8213    0.0000 C   0  0
   -0.3571    0.0039    0.0000 C   0  0
    0.3571    0.4125    0.0000 C   0  0
    1.0716    0.0039    0.0000 C   0  0  1  0  0  0
    1.7858    0.4125    0.0000 C   0  0
    2.5004    0.0039    0.0000 O   0  0
   -2.5004    0.4163    0.0000 I   0  0
   -2.5004   -1.2342    0.0000 O   0  0
    1.0716   -0.8213    0.0000 N   0  0
    1.7858    1.2378    0.0000 O   0  0
  1  2  2  0
  2  3  1  0
  3  4  2  0
  4  5  1  0
  5  6  2  0
  1  6  1  0
  6  7  1  0
  8  7  1  0
  8  9  1  0
  9 10  1  0
  2 11  1  0
  3 12  1  0
  8 13  1  1
  9 14  2  0
M  END
> <Library>
Bioactives

> <Batch>
2012

> <PLATE>
B1002L2012M01

> <WELL>
A3

> <EOS>
EOS100361

> <CCMF_source_vial_barcode>
LV2001695598

> <concentration_mM>
10

> <volume_ul>
30

$$$$
EOS100362
  SciTegic04282016392D

 34 36  0  0  0  0            999 V2000
    3.5625    0.1958    0.0000 C   0  0  2  0  0  0
    2.1292    0.1958    0.0000 C   0  0
    4.9917    0.1958    0.0000 C   0  0
    2.8500    0.6083    0.0000 C   0  0
    4.2750    0.6083    0.0000 C   0  0
    1.4250    0.6083    0.0000 C   0  0
    3.5625   -0.6292    0.0000 C   0  0  2  0  0  0
    0.7042   -0.6292    0.0000 C   0  0
    0.7042    0.1958    0.0000 C   0  0
    4.9917   -0.6292    0.0000 C   0  0
    1.4250   -1.0417    0.0000 C   0  0  2  0  0  0
    2.1292   -0.6292    0.0000 C   0  0  1  0  0  0
    4.2750   -1.0417    0.0000 C   0  0  1  0  0  0
    2.8500   -1.0417    0.0000 C   0  0
    5.7125    0.6083    0.0000 C   0  0
   -0.0083   -1.0417    0.0000 C   0  0
   -0.0083    0.6083    0.0000 C   0  0
    4.2750    1.4333    0.0000 O   0  0
    1.4250    1.4333    0.0000 O   0  0
    4.2750   -1.8667    0.0000 N   0  0
    3.5750    0.9458    0.0000 O   0  0
    6.4250    0.1958    0.0000 O   0  0
    2.8500    1.4333    0.0000 O   0  0
    5.7125   -1.0542    0.0000 O   0  0
    0.8625   -1.6542    0.0000 O   0  0
   -0.7250   -0.6292    0.0000 C   0  0
   -0.7250    0.1958    0.0000 C   0  0
    5.7167    1.4333    0.0000 N   0  0
    1.8375   -1.7542    0.0000 C   0  0
   -0.0083   -1.8667    0.0000 Cl  0  0
   -0.0083    1.4333    0.0000 O   0  0
    5.7375   -2.1667    0.0000 Cl  0  0
    4.9917   -2.2792    0.0000 C   0  0
    3.5625   -2.2792    0.0000 C   0  0
  2  4  2  0
  3  5  1  0
  1  4  1  0
  1  5  1  0
  6  2  1  0
  7  1  1  0
 11  8  1  0
  9  6  1  0
 13 10  1  0
 11 12  1  0
 12 14  1  6
  7 13  1  0
  7 14  1  6
 15  3  1  0
 16  8  2  0
 17  9  2  0
 18  5  2  0
 19  6  2  0
 13 20  1  1
  1 21  1  1
 22 15  2  0
 23  4  1  0
 24 10  1  0
 11 25  1  6
 26 16  1  0
 27 17  1  0
 28 15  1  0
 11 29  1  1
 30 16  1  0
 31 17  1  0
 33 20  1  0
 34 20  1  0
 12  2  1  0
 10  3  2  0
  9  8  1  0
 26 27  2  0
M  END
> <Library>
Bioactives

> <Batch>
2012

> <PLATE>
B1002L2012M01

> <WELL>
C3

> <EOS>
EOS100362

> <CCMF_source_vial_barcode>
LV2001696201

> <concentration_mM>
10

> <volume_ul>
30

$$$$
EOS100363
  SciTegic04282016392D

 31 33  0  0  1  0            999 V2000
    7.0831   -1.0977    0.0000 O   0  0
    7.7385   -3.4304    0.0000 O   0  0
    7.7385   -2.0015    0.0000 O   0  0
    5.1355    2.1427    0.0000 O   0  0
    6.4937    1.6988    0.0000 O   0  0
    6.0195   -2.0521    0.0000 N   0  0
    5.9811    0.1304    0.0000 N   0  0
    5.2389   -3.1285    0.0000 C   0  0  1  0  0  0
    5.2389   -2.3035    0.0000 C   0  0  2  0  0  0
    6.0195   -3.3799    0.0000 C   0  0
    6.5010   -2.7160    0.0000 C   0  0  1  0  0  0
    4.5244   -3.5410    0.0000 C   0  0
    4.5244   -1.8909    0.0000 C   0  0
    3.8099   -3.1285    0.0000 C   0  0
    3.8099   -2.3035    0.0000 C   0  0
    6.2758   -1.2679    0.0000 C   0  0
    7.3260   -2.7160    0.0000 C   0  0
    5.7248   -0.6538    0.0000 C   0  0  2  0  0  0
    4.9175   -0.8239    0.0000 C   0  0
    5.4302    0.7445    0.0000 C   0  0  1  0  0  0
    4.6229    0.5743    0.0000 C   0  0
    5.6864    1.5287    0.0000 C   0  0
    4.0719    1.1884    0.0000 C   0  0
    3.2646    1.0182    0.0000 C   0  0
    5.3917    2.9269    0.0000 C   0  0
    2.7136    1.6323    0.0000 C   0  0
    3.0083    0.2341    0.0000 C   0  0
    1.9064    1.4622    0.0000 C   0  0
    2.2010    0.0639    0.0000 C   0  0
    4.8408    3.5410    0.0000 C   0  0
    1.6500    0.6780    0.0000 C   0  0
  1 16  2  0
  2 17  1  0
  3 17  2  0
  4 22  1  0
  4 25  1  0
  5 22  2  0
  9  6  1  6
 11  6  1  0
  6 16  1  0
 18  7  1  0
 20  7  1  1
  8  9  1  0
  8 10  1  1
  8 12  1  0
  9 13  1  0
 11 10  1  0
 11 17  1  6
 12 14  1  0
 13 15  1  0
 14 15  1  0
 18 16  1  0
 18 19  1  6
 20 21  1  0
 20 22  1  0
 21 23  1  0
 23 24  1  0
 24 26  2  0
 24 27  1  0
 25 30  1  0
 26 28  1  0
 27 29  2  0
 28 31  2  0
 29 31  1  0
M  END
> <Library>
Bioactives

> <Batch>
2012

> <PLATE>
B1002L2012M01

> <WELL>
E3

> <EOS>
EOS100363

> <CCMF_source_vial_barcode>
LV2001695580

> <concentration_mM>
10

> <volume_ul>
30

$$$$
EOS100364
  SciTegic04282016392D

 29 27  0  0  0  0            999 V2000
    8.7619    7.0629    0.0000 Cl  0  0
    5.2428    9.2458    0.0000 Cl  0  0
    5.2428   11.3241    0.0000 Cl  0  0
    2.9916    2.9179    0.0000 O   0  0
    0.4429    5.6621    0.0000 O   0  0
   10.8676    5.6621    0.0000 O   0  0
    5.1350    1.6804    0.0000 N   0  0
    5.8495    4.5679    0.0000 N   0  0
    5.8495    7.0429    0.0000 N   0  0
    4.4206    2.0929    0.0000 C   0  0
    4.4206    2.9179    0.0000 C   0  0
    5.1350    0.8554    0.0000 C   0  0
    5.8495    2.0929    0.0000 C   0  0
    5.1350    3.3304    0.0000 C   0  0
    5.1350    4.1554    0.0000 C   0  0
    3.7061    3.3304    0.0000 C   0  0
    5.8495    0.4429    0.0000 C   0  0
    6.5640    1.6804    0.0000 C   0  0
    4.4206    4.5679    0.0000 C   0  0
    3.7061    4.1554    0.0000 C   0  0
    5.8495    5.3929    0.0000 C   0  0
    6.5640    5.8054    0.0000 C   0  0
    6.5640    6.6304    0.0000 C   0  0
    5.1350    5.8054    0.0000 C   0  0
    7.3015    5.3644    0.0000 C   0  0
    7.3015    7.0716    0.0000 C   0  0
    5.1350    6.6304    0.0000 C   0  0
    8.0490    5.7883    0.0000 C   0  0
    8.0490    6.6477    0.0000 C   0  0
  1 29  1  0
  4 16  1  0
  7 10  1  0
  7 12  1  0
  7 13  1  0
  8 15  1  0
  8 21  1  0
  9 23  2  0
  9 27  1  0
 10 11  1  0
 11 14  2  0
 11 16  1  0
 12 17  1  0
 13 18  1  0
 14 15  1  0
 15 19  2  0
 16 20  2  0
 19 20  1  0
 21 22  2  0
 21 24  1  0
 22 23  1  0
 22 25  1  0
 23 26  1  0
 24 27  2  0
 25 28  2  0
 26 29  2  0
 28 29  1  0
M  END
> <Library>
Bioactives

> <Batch>
2012

> <PLATE>
B1002L2012M01

> <WELL>
G3

> <EOS>
EOS100364

> <CCMF_source_vial_barcode>
LV2001695599

> <concentration_mM>
10

> <volume_ul>
30

$$$$
EOS100365
  SciTegic04282016392D

 31 30  0  0  0  0            999 V2000
   -1.2514   -2.2791    0.0000 C   0  0
   -1.2526   -3.1065    0.0000 C   0  0
   -0.5378   -3.5194    0.0000 C   0  0
    0.1787   -3.1060    0.0000 C   0  0
    0.1758   -2.2755    0.0000 C   0  0
   -0.5396   -1.8664    0.0000 C   0  0
    0.8887   -1.8603    0.0000 C   0  0
    1.6047   -2.2701    0.0000 C   0  0
    2.3177   -1.8549    0.0000 C   0  0  2  0  0  0
    3.0337   -2.2647    0.0000 N   0  0
    2.3145   -1.0299    0.0000 C   0  0
    3.7466   -1.8495    0.0000 C   0  0  2  0  0  0
    3.0275   -0.6147    0.0000 O   0  0
    1.5985   -0.6201    0.0000 O   0  0
    4.4626   -2.2593    0.0000 C   0  0
    3.7435   -1.0245    0.0000 C   0  0
    4.4542   -0.6042    0.0000 C   0  0
    4.4455    0.2208    0.0000 C   0  0
    5.1555    0.6408    0.0000 C   0  0
    5.1468    1.4658    0.0000 N   0  0
    4.4657   -3.0843    0.0000 O   0  0
    5.1755   -1.8442    0.0000 N   0  0
    5.9291   -2.1783    0.0000 C   0  0  1  0  0  0
    6.4789   -1.5631    0.0000 C   0  0
    6.0636   -0.8502    0.0000 C   0  0
    5.2574   -1.0249    0.0000 C   0  0
    6.1028   -2.9848    0.0000 C   0  0
    5.4912   -3.5385    0.0000 O   0  0
    6.8881   -3.2377    0.0000 O   0  0
   10.6042   -1.3417    0.0000 O   0  0
    9.7792   -1.3417    0.0000 O   0  0
 12 15  1  0
  5  7  1  0
 12 16  1  0
 16 17  1  0
  7  8  1  0
 17 18  1  0
  3  4  2  0
 18 19  1  0
  9  8  1  0
 19 20  1  0
  1  2  2  0
 15 21  2  0
  9 10  1  1
 15 22  1  0
 23 22  1  0
  4  5  1  0
  9 11  1  0
 12 10  1  1
 23 24  1  0
 24 25  1  0
 25 26  1  0
 26 22  1  0
  5  6  2  0
 23 27  1  1
 11 13  2  0
 27 28  1  0
  6  1  1  0
 27 29  2  0
 11 14  1  0
  2  3  1  0
M  END
> <Library>
Bioactives

> <Batch>
2012

> <PLATE>
B1002L2012M01

> <WELL>
I3

> <EOS>
EOS100365

> <CCMF_source_vial_barcode>
LV2001696228

> <concentration_mM>
10

> <volume_ul>
30

$$$$
EOS100366
  SciTegic04282016392D

 11  9  0  0  1  0            999 V2000
    3.0573   -4.3782    0.0000 C   0  0
    5.9109   -4.2369    0.0000 C   0  0
    5.9483   -5.0594    0.0000 O   0  5
    3.1029   -5.2090    0.0000 O   0  0
    3.7552   -3.9378    0.0000 C   0  0  2  0  0  0
    6.6047   -3.7926    0.0000 O   0  0
    4.4861   -4.3075    0.0000 C   0  0
    5.1758   -3.8547    0.0000 C   0  0
    2.3219   -4.0043    0.0000 O   0  0
    3.7136   -3.1196    0.0000 N   0  0
    4.8767   -1.4746    0.0000 Na  0  3
  2  8  1  0
  3  2  1  0
  4  1  2  0
  5  1  1  0
  6  2  2  0
  5  7  1  0
  8  7  1  0
  9  1  1  0
  5 10  1  1
M  CHG  2   3  -1  11   1
M  END
> <Library>
Bioactives

> <Batch>
2012

> <PLATE>
B1002L2012M01

> <WELL>
K3

> <EOS>
EOS100366

> <CCMF_source_vial_barcode>
LV2001695631

> <concentration_mM>
10

> <volume_ul>
30

$$$$
EOS100367
  SciTegic04282016392D

 13 14  0  0  0  0            999 V2000
    0.2773   -0.3454    0.0000 C   0  0
   -0.4419   -0.7652    0.0000 C   0  0
    0.2773    0.4777    0.0000 C   0  0
   -1.1527   -0.3537    0.0000 C   0  0
   -0.4419    0.8892    0.0000 C   0  0
   -1.1527    0.4694    0.0000 C   0  0
    0.9923   -0.7569    0.0000 N   0  0
   -0.4336   -1.5883    0.0000 O   0  0
   -1.8635   -0.7652    0.0000 Br  0  0
   -0.4419    1.7123    0.0000 Br  0  0
    0.9798    0.8892    0.0000 C   0  0
    1.7031   -0.3454    0.0000 C   0  0
    1.6989    0.4819    0.0000 C   0  0
  2  1  2  0
  3  1  1  0
  4  2  1  0
  5  3  2  0
  6  5  1  0
  7  1  1  0
  8  2  1  0
  9  4  1  0
 10  5  1  0
 11  3  1  0
 12  7  2  0
 13 12  1  0
 13 11  2  0
  4  6  2  0
M  END
> <Library>
Bioactives

> <Batch>
2012

> <PLATE>
B1002L2012M01

> <WELL>
M3

> <EOS>
EOS100367

> <CCMF_source_vial_barcode>
LV2001696195

> <concentration_mM>
10

> <volume_ul>
30

$$$$
EOS100368
  SciTegic04282016392D

 26 27  0  0  0  0            999 V2000
   -3.0233   -1.0731    0.0000 N   0  0
   -2.3559   -0.5881    0.0000 C   0  0
   -2.6108    0.1965    0.0000 N   0  0
   -3.4358    0.1965    0.0000 C   0  0
   -3.6908   -0.5881    0.0000 C   0  0
   -1.5740   -0.8422    0.0000 C   0  0
   -0.9209   -0.4125    0.0000 N   0  0
   -0.2064   -0.8250    0.0000 C   0  0
   -0.2064   -1.6500    0.0000 C   0  0
    0.5081   -2.0625    0.0000 C   0  0
    1.2225   -1.6500    0.0000 C   0  0
    1.2225   -0.8250    0.0000 C   0  0
    0.5081   -0.4125    0.0000 C   0  0
    0.5081   -2.8846    0.0000 O   0  0
   -0.9209    0.4125    0.0000 C   0  0
   -0.2064    0.8250    0.0000 C   0  0
   -0.2064    1.6500    0.0000 C   0  0
   -0.9209    2.0625    0.0000 C   0  0
   -1.6353    1.6500    0.0000 C   0  0
   -1.6353    0.8250    0.0000 C   0  0
   -0.9209    2.8846    0.0000 C   0  0
    2.2618    0.5598    0.0000 C   0  0
    2.9763    0.9723    0.0000 S   0  0
    3.6908    0.5598    0.0000 O   0  0
    2.5638    1.6867    0.0000 O   0  0
    3.3888    1.6867    0.0000 O   0  0
  1  2  1  0
  2  3  2  0
  3  4  1  0
  4  5  1  0
  5  1  1  0
  2  6  1  0
  6  7  1  0
  7  8  1  0
  8  9  2  0
  9 10  1  0
 10 11  2  0
 11 12  1  0
 12 13  2  0
 13  8  1  0
 10 14  1  0
  7 15  1  0
 15 16  2  0
 16 17  1  0
 17 18  2  0
 18 19  1  0
 19 20  2  0
 20 15  1  0
 18 21  1  0
 23 22  1  0
 24 23  1  0
 23 25  2  0
 23 26  2  0
M  END
> <Library>
Bioactives

> <Batch>
2012

> <PLATE>
B1002L2012M01

> <WELL>
O3

> <EOS>
EOS100368

> <CCMF_source_vial_barcode>
LV2001696239

> <concentration_mM>
10

> <volume_ul>
30

$$$$
EOS100369
  SciTegic04282016392D

 11 11  0  0  0  0            999 V2000
    1.9244   -1.4026    0.0000 C   0  0  2  0  0  0
    1.9244   -2.2276    0.0000 C   0  0  2  0  0  0
    2.6389   -2.6401    0.0000 C   0  0  1  0  0  0
    3.3534   -2.2276    0.0000 C   0  0  2  0  0  0
    3.3534   -1.4026    0.0000 N   0  0
    2.6389   -0.9901    0.0000 C   0  0
    2.6389   -3.4652    0.0000 O   0  0
    1.2099   -0.9901    0.0000 O   0  0
    1.2099   -2.6401    0.0000 O   0  0
    4.0679   -2.6401    0.0000 C   0  0
    4.7825   -2.2276    0.0000 O   0  0
  2  1  1  0
  2  3  1  0
  3  4  1  0
  4  5  1  0
  5  6  1  0
  1  6  1  0
  3  7  1  1
  1  8  1  1
  2  9  1  6
  4 10  1  6
 10 11  1  0
M  END
> <Library>
Bioactives

> <Batch>
2012

> <PLATE>
B1002L2012M01

> <WELL>
A5

> <EOS>
EOS100369

> <CCMF_source_vial_barcode>
LV2001695034

> <concentration_mM>
10

> <volume_ul>
30

$$$$
EOS100370
  SciTegic04282016392D

 37 39  0  0  0  0            999 V2000
   -1.5395   -2.4750    0.0000 C   0  0
   -1.5395   -1.6500    0.0000 C   0  0
   -0.8250   -1.2375    0.0000 C   0  0  2  0  0  0
   -0.8250   -0.4125    0.0000 C   0  0  1  0  0  0
   -1.5395    0.0000    0.0000 C   0  0
   -2.2539   -0.4125    0.0000 C   0  0  1  0  0  0
   -2.2539   -1.2375    0.0000 N   0  0
   -2.9684   -1.6500    0.0000 C   0  0
   -3.6829   -1.2375    0.0000 C   0  0
   -3.6829   -0.4125    0.0000 C   0  0
   -2.9684    0.0000    0.0000 C   0  0
   -2.9684    0.8250    0.0000 C   0  0
   -3.6829    1.2375    0.0000 C   0  0
   -3.6829    2.0625    0.0000 O   0  0
   -2.9684    2.4750    0.0000 C   0  0
   -4.3974    0.8250    0.0000 C   0  0
   -5.1118    1.2375    0.0000 O   0  0
   -5.8263    0.8250    0.0000 C   0  0
   -4.3974    0.0000    0.0000 C   0  0
   -0.1105    0.0000    0.0000 C   0  0
    0.6039   -0.4125    0.0000 C   0  0  1  0  0  0
    1.3184    0.0000    0.0000 C   0  0
    2.0329   -0.4125    0.0000 C   0  0
    2.7474    0.0000    0.0000 C   0  0
    2.7474    0.8250    0.0000 C   0  0
    2.0329    1.2375    0.0000 C   0  0
    2.0329    2.0625    0.0000 O   0  0
    2.7474    2.4750    0.0000 C   0  0
    1.3184    0.8250    0.0000 C   0  0
    3.4618    1.2375    0.0000 O   0  0
    4.1763    0.8250    0.0000 C   0  0
    2.0329   -1.2375    0.0000 C   0  0
    1.3184   -1.6500    0.0000 C   0  0
    0.6039   -1.2375    0.0000 N   0  0
   -0.1105   -1.6500    0.0000 C   0  0
    5.8263    0.4125    0.0000 Cl  0  0
    5.8263   -0.4125    0.0000 Cl  0  0
  1  2  1  0
  3  2  1  6
  3  4  1  0
  4  5  1  1
  6  5  1  1
  6  7  1  0
  7  8  1  0
  8  9  1  0
  9 10  1  0
 10 11  2  0
  6 11  1  0
 11 12  1  0
 12 13  2  0
 13 14  1  0
 14 15  1  0
 13 16  1  0
 16 17  1  0
 17 18  1  0
 16 19  2  0
 10 19  1  0
  4 20  1  0
 21 20  1  1
 21 22  1  0
 22 23  2  0
 23 24  1  0
 24 25  2  0
 25 26  1  0
 26 27  1  0
 27 28  1  0
 26 29  2  0
 22 29  1  0
 25 30  1  0
 30 31  1  0
 23 32  1  0
 32 33  1  0
 33 34  1  0
 21 34  1  0
 34 35  1  0
  3 35  1  0
M  END
> <Library>
Bioactives

> <Batch>
2012

> <PLATE>
B1002L2012M01

> <WELL>
C5

> <EOS>
EOS100370

> <CCMF_source_vial_barcode>
LV2001695069

> <concentration_mM>
10

> <volume_ul>
30

$$$$
EOS100371
  SciTegic04282016392D

 28 27  0  0  0  0            999 V2000
   -0.7083   -3.0375    0.0000 C   0  0  2  0  0  0
    0.0042   -2.6250    0.0000 C   0  0  2  0  0  0
   -2.3708    0.1500    0.0000 C   0  0
   -1.4208   -2.6292    0.0000 C   0  0
    0.7167   -3.0292    0.0000 C   0  0
   -1.6500    0.5625    0.0000 O   0  0
    0.4917    0.1583    0.0000 C   0  0
   -3.0833    0.5625    0.0000 N   0  0
    1.2042    0.5708    0.0000 C   0  0  1  0  0  0
   -2.3708   -0.6750    0.0000 O   0  0
   -0.2250    0.5708    0.0000 C   0  0
    1.9167    0.1625    0.0000 N   0  0
   -0.9375    0.1500    0.0000 C   0  0
   -1.4208   -1.8042    0.0000 O   0  0
    0.7167   -3.8542    0.0000 O   0  0
   -0.7083   -3.8625    0.0000 O   0  0
    0.0042   -1.8000    0.0000 O   0  0
   -2.1333   -3.0417    0.0000 O   0  0
    1.4292   -2.6167    0.0000 O   0  0
    0.4917   -0.6750    0.0000 C   0  0
   -0.2250   -1.0875    0.0000 C   0  0
   -3.0833    1.3875    0.0000 C   0  0
   -3.7958    0.1500    0.0000 C   0  0
   -0.9375   -0.6750    0.0000 C   0  0
    2.6292    0.5750    0.0000 C   0  0
    1.9167   -0.6625    0.0000 C   0  0
    1.2000    1.3958    0.0000 C   0  0
   -2.3708    1.8000    0.0000 C   0  0
  1  2  1  0
  1  4  1  0
  2  5  1  0
  6  3  1  0
  7 11  2  0
  8  3  1  0
  9  7  1  0
 10  3  2  0
 11 13  1  0
  9 12  1  0
 13  6  1  0
 14  4  2  0
 15  5  2  0
  1 16  1  1
  2 17  1  1
 18  4  1  0
 19  5  1  0
 20 21  2  0
 21 24  1  0
 22  8  1  0
 23  8  1  0
 24 13  2  0
 25 12  1  0
 26 12  1  0
  9 27  1  6
 28 22  1  0
 20  7  1  0
M  END
> <Library>
Bioactives

> <Batch>
2012

> <PLATE>
B1002L2012M01

> <WELL>
E5

> <EOS>
EOS100371

> <CCMF_source_vial_barcode>
LV2001695601

> <concentration_mM>
10

> <volume_ul>
30

$$$$
EOS100372
  SciTegic04282016392D

 15 16  0  0  1  0            999 V2000
    3.8797    1.6829    0.0000 N   0  0
    5.0993    1.1399    0.0000 N   0  0
    3.0791    0.4499    0.0000 C   0  0
    3.0791   -0.3751    0.0000 C   0  0
    2.3645   -0.7876    0.0000 C   0  0
    3.7935    0.8624    0.0000 C   0  0
    2.3645    0.8624    0.0000 C   0  0
    2.3645   -1.6127    0.0000 C   0  0
    3.7935   -0.7876    0.0000 C   0  0
    1.6500   -0.3751    0.0000 C   0  0
    3.0791   -2.0252    0.0000 C   0  0
    3.7935   -1.6127    0.0000 C   0  0
    4.5472    0.5269    0.0000 C   0  0
    1.6500   -2.0252    0.0000 C   0  0
    4.6868    1.8544    0.0000 C   0  0
  1  6  1  0
  1 15  1  0
  2 13  1  0
  2 15  2  0
  3  4  1  0
  3  6  1  0
  3  7  1  0
  4  5  2  0
  4  9  1  0
  5  8  1  0
  5 10  1  0
  6 13  2  0
  8 11  2  0
  8 14  1  0
  9 12  2  0
 11 12  1  0
M  END
> <Library>
Bioactives

> <Batch>
2012

> <PLATE>
B1002L2012M01

> <WELL>
G5

> <EOS>
EOS100372

> <CCMF_source_vial_barcode>
LV2001695086

> <concentration_mM>
10

> <volume_ul>
30

$$$$
EOS100373
  SciTegic04282016392D

 28 32  0  0  0  0            999 V2000
   -2.0047    1.5503    0.0000 C   0  0
   -2.0047    0.7253    0.0000 C   0  0
   -1.2927    0.3170    0.0000 N   0  0
   -1.2927    1.9670    0.0000 C   0  0
   -0.5807    1.5503    0.0000 C   0  0
   -0.5807    0.7243    0.0000 N   0  0
    0.2048    0.4690    0.0000 C   0  0
    0.6904    1.1373    0.0000 N   0  0
    0.2048    1.8055    0.0000 N   0  0
    0.4596   -0.3156    0.0000 C   0  0
   -2.7185    0.3157    0.0000 C   0  0
   -3.4727    0.6500    0.0000 C   0  0
   -4.0239    0.0362    0.0000 N   0  0
   -3.6103   -0.6777    0.0000 N   0  0
   -2.8036   -0.5049    0.0000 C   0  0
   -3.9447   -1.4319    0.0000 C   0  0
    1.1763   -0.7287    0.0000 C   0  0
   -0.2525   -0.7287    0.0000 F   0  0
    0.7058    0.4731    0.0000 F   0  0
    1.1743   -1.5537    0.0000 C   0  0
    1.8864   -1.9621    0.0000 C   0  0
    1.8864   -0.3121    0.0000 C   0  0
    2.5984   -0.7287    0.0000 C   0  0
    2.5949   -1.5537    0.0000 C   0  0
    3.3036   -1.9670    0.0000 N   0  0
    4.0204   -1.5598    0.0000 C   0  0
    4.0239   -0.7348    0.0000 C   0  0
    3.3106   -0.3170    0.0000 C   0  0
  1  2  1  0
  1  4  2  0
  2 11  1  0
  2  3  2  0
  3  6  1  0
  5  4  1  0
  9  5  2  0
  5  6  1  0
  6  7  1  0
  7  8  2  0
  7 10  1  0
  8  9  1  0
 10 17  1  0
 10 18  1  0
 10 19  1  0
 15 11  2  0
 11 12  1  0
 12 13  2  0
 13 14  1  0
 14 15  1  0
 14 16  1  0
 17 20  2  0
 17 22  1  0
 20 21  1  0
 21 24  2  0
 23 22  2  0
 23 24  1  0
 23 28  1  0
 24 25  1  0
 25 26  2  0
 26 27  1  0
 27 28  2  0
M  END
> <Library>
Bioactives

> <Batch>
2012

> <PLATE>
B1002L2012M01

> <WELL>
I5

> <EOS>
EOS100373

> <CCMF_source_vial_barcode>
LV2001695085

> <concentration_mM>
10

> <volume_ul>
30

$$$$
EOS100374
  SciTegic04282016392D

 28 31  0  0  0  0            999 V2000
    1.3417   -4.1625    0.0000 C   0  0
    1.3500   -3.3375    0.0000 C   0  0  1  0  0  0
    3.5000   -2.1167    0.0000 C   0  0  2  0  0  0
    4.2792   -1.8667    0.0000 C   0  0  1  0  0  0
    2.7667   -3.3417    0.0000 C   0  0  2  0  0  0
    2.7750   -4.1667    0.0000 C   0  0
    2.0625   -2.9250    0.0000 C   0  0  2  0  0  0
    3.4917   -2.9417    0.0000 C   0  0  2  0  0  0
    2.0542   -4.5750    0.0000 C   0  0
    0.6375   -4.5667    0.0000 C   0  0
    2.7917   -1.6917    0.0000 C   0  0
    4.7542   -2.5417    0.0000 C   0  0
    4.9917   -1.4542    0.0000 O   0  0
    2.0667   -2.1000    0.0000 C   0  0
    4.2667   -3.2000    0.0000 C   0  0
    0.6375   -2.9167    0.0000 C   0  0
    4.0667   -1.0667    0.0000 C   0  0
    5.7042   -1.8667    0.0000 C   0  0
   -0.0708   -4.1625    0.0000 C   0  0
    6.4167   -1.4542    0.0000 O   0  0
    3.2667   -0.8542    0.0000 O   0  0
   -0.7875   -4.5667    0.0000 O   0  0
   -0.0708   -3.3375    0.0000 C   0  0
    1.3417   -2.5125    0.0000 C   0  0
    3.4917   -1.2917    0.0000 C   0  0
    2.0542   -5.4000    0.0000 C   0  0
    5.7042   -2.6917    0.0000 C   0  0
    4.6500   -0.4792    0.0000 C   0  0
  2  1  1  0
  3  8  1  0
  3  4  1  0
  5  6  1  6
  6  9  2  0
  7  2  1  0
  8  5  1  0
  9  1  1  0
 10  1  2  0
 11 14  1  0
 12 15  1  0
  4 13  1  6
  7 14  1  1
  8 15  1  1
  2 16  1  0
  4 17  1  1
 18 13  1  0
 19 10  1  0
 20 18  2  0
 21 17  2  0
 22 19  2  0
 23 19  1  0
  2 24  1  1
  3 25  1  1
 26  9  1  0
 27 18  1  0
 28 17  1  0
  5  7  1  0
 23 16  1  0
  3 11  1  0
  4 12  1  0
M  END
> <Library>
Bioactives

> <Batch>
2012

> <PLATE>
B1002L2012M01

> <WELL>
K5

> <EOS>
EOS100374

> <CCMF_source_vial_barcode>
LV2001695121

> <concentration_mM>
10

> <volume_ul>
30

$$$$
EOS100375
  SciTegic04282016392D

 21 22  0  0  0  0            999 V2000
   -2.3767    1.1931    0.0000 C   0  0
   -2.8050    2.9939    0.0000 C   0  0
   -1.9794    2.9997    0.0000 C   0  0
   -3.3137    2.3430    0.0000 C   0  0
   -3.1192    1.5358    0.0000 C   0  0
   -3.7204    0.9658    0.0000 C   0  0
   -4.5163    1.2018    0.0000 C   0  0
   -4.7075    2.0131    0.0000 C   0  0
   -4.1049    2.5796    0.0000 C   0  0
   -1.6384    1.5581    0.0000 C   0  0
   -1.4575    2.3629    0.0000 C   0  0
   -0.6716    2.6071    0.0000 C   0  0
   -0.0658    2.0475    0.0000 C   0  0
   -0.2514    1.2405    0.0000 C   0  0
   -1.0370    1.0001    0.0000 C   0  0
   -2.3821    0.3665    0.0000 C   0  0
   -1.6700   -0.0500    0.0000 C   0  0
   -0.9578    0.3623    0.0000 C   0  0
   -0.2457   -0.0542    0.0000 N   0  0
    0.4707    0.3542    0.0000 C   0  0
   -2.6779   -1.0953    0.0000 Cl  0  0
  2  3  2  0
  5  1  1  0
 10 11  2  0
  1 10  1  0
 11 12  1  0
  4  5  2  0
 12 13  2  0
 13 14  1  0
  5  6  1  0
 14 15  2  0
 15 10  1  0
  4  2  1  0
  1 16  1  0
  6  7  2  0
 16 17  1  0
 17 18  1  0
  7  8  1  0
 18 19  1  0
 11  3  1  0
 19 20  1  0
  8  9  2  0
  9  4  1  0
M  END
> <Library>
Bioactives

> <Batch>
2012

> <PLATE>
B1002L2012M01

> <WELL>
M5

> <EOS>
EOS100375

> <CCMF_source_vial_barcode>
LV2001696224

> <concentration_mM>
10

> <volume_ul>
30

$$$$
EOS100376
  SciTegic04282016392D

 33 36  0  0  0  0            999 V2000
    5.0611    0.4074    0.0000 S   0  0
    7.9201    3.3590    0.0000 F   0  0
    6.8300    2.9427    0.0000 F   0  0
    7.2463    1.8528    0.0000 F   0  0
    6.9997    1.3015    0.0000 O   0  0
    2.3645   -0.8840    0.0000 O   0  0
    2.3645   -2.5340    0.0000 O   0  0
    4.4869    2.0320    0.0000 O   0  0
    5.2886   -1.0450    0.0000 N   0  0
    5.2886   -2.3729    0.0000 N   0  0
    5.8467    2.4712    0.0000 N   0  0
    4.5080   -1.2965    0.0000 C   0  0
    5.5449   -0.2609    0.0000 C   0  0
    4.5080   -2.1215    0.0000 C   0  0
    3.7935   -0.8840    0.0000 C   0  0
    6.3314    0.8178    0.0000 C   0  0
    6.3300   -0.0073    0.0000 C   0  0
    5.7701   -1.7090    0.0000 C   0  0
    3.7935   -2.5340    0.0000 C   0  0
    3.0790   -1.2965    0.0000 C   0  0
    5.5472    1.0740    0.0000 C   0  0
    3.0790   -2.1215    0.0000 C   0  0
    7.7528    0.9646    0.0000 C   0  0
    8.4211    1.4484    0.0000 C   0  0
    8.3363    2.2690    0.0000 C   0  0
    9.1742    1.1115    0.0000 C   0  0
    9.0045    2.7528    0.0000 C   0  0
    5.2936    1.8591    0.0000 C   0  0
    7.5832    2.6059    0.0000 C   0  0
    9.8425    1.5953    0.0000 C   0  0
    9.7577    2.4160    0.0000 C   0  0
    1.6500   -1.2965    0.0000 C   0  0
    2.3645   -3.3590    0.0000 C   0  0
  1 13  1  0
  1 21  1  0
  2 29  1  0
  3 29  1  0
  4 29  1  0
  5 16  1  0
  5 23  1  0
  6 20  1  0
  6 32  1  0
  7 22  1  0
  7 33  1  0
  8 28  2  0
  9 12  1  0
  9 13  1  0
  9 18  1  0
 10 14  1  0
 10 18  2  0
 11 28  1  0
 12 14  1  0
 12 15  2  0
 13 17  2  0
 14 19  2  0
 15 20  1  0
 16 17  1  0
 16 21  2  0
 19 22  1  0
 20 22  2  0
 21 28  1  0
 23 24  1  0
 24 25  2  0
 24 26  1  0
 25 27  1  0
 25 29  1  0
 26 30  2  0
 27 31  2  0
 30 31  1  0
M  END
> <Library>
Bioactives

> <Batch>
2012

> <PLATE>
B1002L2012M01

> <WELL>
O5

> <EOS>
EOS100376

> <CCMF_source_vial_barcode>
LV2001696242

> <concentration_mM>
10

> <volume_ul>
30

$$$$
EOS100377
  SciTegic04282016392D

 26 27  0  0  0  0            999 V2000
    2.8628   -3.3298    0.0000 C   0  0
    3.2753   -2.6153    0.0000 C   0  0
    3.2753   -4.0443    0.0000 O   0  0
    2.0378   -3.3298    0.0000 C   0  0
    1.6253   -2.6153    0.0000 C   0  0
    0.8003   -2.6153    0.0000 C   0  0
    0.3878   -3.3298    0.0000 C   0  0
    0.8003   -4.0443    0.0000 C   0  0
    1.6253   -4.0443    0.0000 C   0  0
    4.5128   -1.9009    0.0000 N   0  0
    4.1003   -2.6153    0.0000 C   0  0  2  0  0  0
    4.5128   -3.3298    0.0000 C   0  0
    5.3378   -3.3298    0.0000 C   0  0
    5.7503   -2.6153    0.0000 C   0  0
    5.3378   -1.9009    0.0000 C   0  0  1  0  0  0
    4.1003   -1.1864    0.0000 C   0  0
    5.7503   -1.1864    0.0000 C   0  0
    6.5753   -1.1864    0.0000 C   0  0  2  0  0  0
    6.9878   -0.4720    0.0000 O   0  0
    6.9878   -1.9009    0.0000 C   0  0
    6.5753   -2.6153    0.0000 C   0  0
    6.9878   -3.3298    0.0000 C   0  0
    7.8128   -3.3298    0.0000 C   0  0
    8.2253   -2.6153    0.0000 C   0  0
    7.8128   -1.9009    0.0000 C   0  0
    3.1102   -1.7681    0.0000 Cl  0  0
  1  2  1  0
  4  5  2  0
  5  6  1  0
  6  7  2  0
  7  8  1  0
  8  9  2  0
  4  9  1  0
  1  3  2  0
  1  4  1  0
 11 10  1  0
 11 12  1  0
 12 13  1  0
 13 14  1  0
 15 14  1  0
 15 10  1  0
 10 16  1  0
 18 17  1  0
 18 19  1  6
 20 21  2  0
 21 22  1  0
 22 23  2  0
 23 24  1  0
 24 25  2  0
 20 25  1  0
 18 20  1  0
 15 17  1  6
 11  2  1  6
M  END
> <Library>
Bioactives

> <Batch>
2012

> <PLATE>
B1002L2012M01

> <WELL>
A7

> <EOS>
EOS100377

> <CCMF_source_vial_barcode>
LV2001695107

> <concentration_mM>
10

> <volume_ul>
30

$$$$
EOS100378
  SciTegic04282016392D

 12 12  0  0  0  0            999 V2000
    3.7998   -6.5292    0.0000 C   0  0
    3.7998   -7.3546    0.0000 C   0  0
    4.5085   -7.7653    0.0000 C   0  0
    5.2217   -7.3546    0.0000 C   0  0
    5.2217   -6.5292    0.0000 C   0  0
    4.5085   -6.1144    0.0000 C   0  0
    5.9381   -6.1206    0.0000 C   0  0
    5.0126   -5.7306    0.0000 C   0  0
    5.5998   -5.1485    0.0000 N   0  0
    6.6525   -6.5334    0.0000 C   0  0
    6.6504   -7.3555    0.0000 O   0  0
    7.3661   -6.1196    0.0000 O   0  0
  8  9  1  0
  2  3  1  0
  3  4  1  0
  4  5  1  0
  5  6  1  0
  5  7  1  0
  7 10  1  0
  1  2  1  0
  5  8  1  0
  1  6  1  0
 10 11  1  0
 10 12  2  0
M  END
> <Library>
Bioactives

> <Batch>
2012

> <PLATE>
B1002L2012M01

> <WELL>
C7

> <EOS>
EOS100378

> <CCMF_source_vial_barcode>
LV2001695111

> <concentration_mM>
10

> <volume_ul>
30

$$$$
EOS100379
  SciTegic04282016392D

 21 21  0  0  0  0            999 V2000
    2.3586   -3.7189    0.0000 C   0  0
    1.6525   -4.1352    0.0000 C   0  0
    2.3586   -2.9198    0.0000 C   0  0
    3.0905   -4.1352    0.0000 C   0  0
    1.6525   -2.4775    0.0000 C   0  0
    3.0905   -2.4775    0.0000 C   0  0
    3.7939   -3.7189    0.0000 N   0  0
    2.3586   -4.5490    0.0000 O   0  0
    2.3586   -1.2362    0.0000 C   0  0
    1.6525   -1.6525    0.0000 C   0  0
    3.0905   -1.6525    0.0000 C   0  0
    5.0844   -3.2301    0.0000 Cl  0  0
    2.3586   -0.4112    0.0000 O   0  0
    1.2362   -4.8671    0.0000 C   0  0
    1.2362   -3.4318    0.0000 C   0  0
    3.7939   -2.9198    0.0000 C   0  0
    4.4999   -4.1352    0.0000 C   0  0
    1.6525    0.0000    0.0000 C   0  0
    0.4112   -3.4318    0.0000 C   0  0
    0.4112   -4.8671    0.0000 C   0  0
    0.0000   -4.1352    0.0000 C   0  0
  2  1  1  0
  3  1  1  0
  4  1  1  0
  5  3  2  0
  6  3  1  0
  7  4  1  0
  8  2  1  0
  9 11  1  0
 10  5  1  0
 11  6  2  0
 13  9  1  0
 14  2  1  0
 15  2  1  0
 16  7  1  0
 17  7  1  0
 18 13  1  0
 19 15  1  0
 20 14  1  0
 21 20  1  0
 10  9  2  0
 21 19  1  0
M  END
> <Library>
Bioactives

> <Batch>
2012

> <PLATE>
B1002L2012M01

> <WELL>
E7

> <EOS>
EOS100379

> <CCMF_source_vial_barcode>
LV2001696257

> <concentration_mM>
10

> <volume_ul>
30

$$$$
EOS100380
  SciTegic04282016392D

 64 66  0  0  1  0            999 V2000
   -4.1499   -8.1036    0.0000 N   0  0
   -4.5023   -7.3576    0.0000 C   0  0  1  0  0  0
   -5.3245   -7.2898    0.0000 C   0  0
   -5.7943   -7.9680    0.0000 C   0  0
   -6.6165   -7.9002    0.0000 O   0  0
   -5.4420   -8.7139    0.0000 O   0  0
   -4.0325   -6.6795    0.0000 C   0  0
   -4.3848   -5.9335    0.0000 O   0  0
   -3.2103   -6.7473    0.0000 N   0  0
   -2.7404   -6.0692    0.0000 C   0  0  1  0  0  0
   -3.0928   -5.3232    0.0000 C   0  0
   -2.6230   -4.6451    0.0000 C   0  0
   -2.9753   -3.8991    0.0000 C   0  0
   -2.5055   -3.2210    0.0000 N   0  0
   -2.8579   -2.4750    0.0000 C   0  0
   -3.6801   -2.4072    0.0000 N   0  0
   -2.3881   -1.7969    0.0000 N   0  0
   -1.9182   -6.1370    0.0000 C   0  0
   -1.5658   -6.8829    0.0000 O   0  0
   -1.4484   -5.4588    0.0000 N   0  0
   -0.6262   -5.5267    0.0000 C   0  0  1  0  0  0
   -0.2738   -6.2726    0.0000 C   0  0
    0.5484   -6.3404    0.0000 C   0  0
   -0.7436   -6.9508    0.0000 C   0  0
   -0.1563   -4.8485    0.0000 C   0  0
   -0.5087   -4.1025    0.0000 O   0  0
    0.6659   -4.9163    0.0000 N   0  0
    1.1357   -4.2382    0.0000 C   0  0  1  0  0  0
    0.7833   -3.4922    0.0000 C   0  0
    1.2532   -2.8141    0.0000 C   0  0
    0.9008   -2.0681    0.0000 C   0  0
    1.3706   -1.3900    0.0000 C   0  0
    2.1928   -1.4578    0.0000 C   0  0
    2.6627   -0.7796    0.0000 O   0  0
    2.5452   -2.2037    0.0000 C   0  0
    2.0754   -2.8819    0.0000 C   0  0
    1.9579   -4.3060    0.0000 C   0  0
    2.3103   -5.0520    0.0000 O   0  0
    2.4277   -3.6278    0.0000 N   0  0
    3.2499   -3.6957    0.0000 C   0  0  1  0  0  0
    3.6023   -4.4416    0.0000 C   0  0  1  0  0  0
    4.4245   -4.5094    0.0000 C   0  0
    3.1325   -5.1198    0.0000 C   0  0
    3.4849   -5.8657    0.0000 C   0  0
    3.7198   -3.0175    0.0000 C   0  0
    3.3674   -2.2716    0.0000 O   0  0
    4.5420   -3.0853    0.0000 N   0  0
    5.0118   -2.4072    0.0000 C   0  0  1  0  0  0
    4.6594   -1.6612    0.0000 C   0  0
    5.1293   -0.9831    0.0000 C   0  0
    4.8568   -0.2044    0.0000 C   0  0
    5.5132    0.2954    0.0000 N   0  0
    6.1914   -0.1744    0.0000 C   0  0
    5.9541   -0.9646    0.0000 N   0  0
    5.8340   -2.4750    0.0000 C   0  0
    6.3039   -1.7969    0.0000 O   0  0
    6.1864   -3.2210    0.0000 N   0  0
    5.7900   -3.9445    0.0000 C   0  0
    6.3557   -4.5451    0.0000 C   0  0
    7.1016   -4.1927    0.0000 C   0  0
    6.9970   -3.3743    0.0000 C   0  0  1  0  0  0
    7.5976   -2.8087    0.0000 C   0  0
    8.3877   -3.0460    0.0000 O   0  0
    7.4080   -2.0058    0.0000 O   0  0
  2  1  1  1
  2  3  1  0
  3  4  1  0
  4  5  1  0
  4  6  2  0
  2  7  1  0
  7  8  2  0
  7  9  1  0
 10  9  1  1
 10 11  1  0
 11 12  1  0
 12 13  1  0
 13 14  1  0
 14 15  1  0
 15 16  1  0
 15 17  2  0
 10 18  1  0
 18 19  2  0
 18 20  1  0
 21 20  1  6
 21 22  1  0
 22 23  1  0
 22 24  1  0
 21 25  1  0
 25 26  2  0
 25 27  1  0
 28 27  1  1
 28 29  1  0
 29 30  1  0
 30 31  2  0
 31 32  1  0
 32 33  2  0
 33 34  1  0
 33 35  1  0
 35 36  2  0
 30 36  1  0
 28 37  1  0
 37 38  2  0
 37 39  1  0
 40 39  1  6
 40 41  1  0
 41 42  1  1
 41 43  1  0
 43 44  1  0
 40 45  1  0
 45 46  2  0
 45 47  1  0
 48 47  1  1
 48 49  1  0
 49 50  1  0
 50 51  2  0
 51 52  1  0
 52 53  1  0
 53 54  2  0
 50 54  1  0
 48 55  1  0
 55 56  2  0
 55 57  1  0
 57 58  1  0
 58 59  1  0
 59 60  1  0
 61 60  1  0
 61 57  1  0
 61 62  1  6
 62 63  1  0
 62 64  2  0
M  END
> <Library>
Bioactives

> <Batch>
2012

> <PLATE>
B1002L2012M01

> <WELL>
G7

> <EOS>
EOS100380

> <CCMF_source_vial_barcode>
LV2001695620

> <concentration_mM>
10

> <volume_ul>
30

$$$$
EOS100381
  SciTegic04282016392D

 52 54  0  0  1  0            999 V2000
    3.7367   -5.8511    0.0000 N   0  0
    2.8401   -5.4299    0.0000 C   0  0
    5.1672   -5.8511    0.0000 C   0  0
    5.1672   -6.6768    0.0000 C   0  0
    5.9512   -6.9312    0.0000 N   0  0
    3.7367   -6.6768    0.0000 C   0  0  1  0  0  0
    5.9512   -5.5967    0.0000 N   0  0
    4.4540   -5.4382    0.0000 C   0  0
    4.4540   -7.0897    0.0000 C   0  0
    8.4118   -3.4573    0.0000 C   0  0
    8.6077   -5.6176    0.0000 C   0  0
    6.4350   -6.2681    0.0000 C   0  0
    2.8401   -4.6041    0.0000 C   0  0
    9.1249   -3.0444    0.0000 C   0  0
    9.3209   -5.2047    0.0000 C   0  0
    3.0152   -7.0981    0.0000 C   0  0
    8.6245   -8.2449    0.0000 C   0  0
    8.0698   -8.8497    0.0000 C   0  0
    6.2056   -7.7194    0.0000 C   0  0
    2.1269   -5.8428    0.0000 O   0  0
    8.3700   -7.4567    0.0000 C   0  0
    9.4335   -8.4284    0.0000 N   0  0
    7.2648   -8.6786    0.0000 C   0  0
    7.0105   -7.8946    0.0000 C   0  0
    9.1249   -2.2187    0.0000 O   0  0
    9.3167   -4.3789    0.0000 O   0  0
    2.2938   -6.6852    0.0000 O   0  0
    3.5532   -4.1913    0.0000 C   0  0
    2.1227   -4.1913    0.0000 C   0  0
    7.8946   -5.2089    0.0000 F   0  0
    7.6986   -3.0527    0.0000 F   0  0
    8.4118   -4.2831    0.0000 F   0  0
    7.6986   -3.8702    0.0000 F   0  0
    8.5994   -6.4433    0.0000 F   0  0
    7.8863   -6.0221    0.0000 F   0  0
    7.5651   -7.2816    0.0000 C   0  0
   10.0340   -5.6134    0.0000 O   0  0
    9.8422   -3.4573    0.0000 O   0  0
    3.0194   -7.9238    0.0000 O   0  0
    8.3200   -9.6420    0.0000 C   0  0
    9.6795   -9.2208    0.0000 C   0  0
    9.9965   -7.8195    0.0000 C   0  0
    4.2663   -4.6083    0.0000 C   0  0
    3.5490   -3.3697    0.0000 C   0  0
    2.1269   -3.3613    0.0000 C   0  0
    1.4138   -4.5999    0.0000 C   0  0
    4.2621   -2.9569    0.0000 C   0  0
    1.4138   -2.9485    0.0000 C   0  0
    0.7006   -4.1913    0.0000 C   0  0
    4.9795   -4.1955    0.0000 C   0  0
    0.6964   -3.3613    0.0000 C   0  0
    4.9837   -3.3697    0.0000 C   0  0
  2  1  1  0
  3  8  1  0
  4  3  2  0
  5  4  1  0
  6  1  1  0
  7  3  1  0
  8  1  1  0
  6  9  1  0
 12  7  2  0
 13  2  1  0
 14 10  1  0
 15 11  1  0
  6 16  1  1
 17 21  2  0
 18 23  2  0
 19  5  1  0
 20  2  2  0
 21 36  1  0
 22 17  1  0
 23 24  1  0
 24 19  1  0
 25 14  2  0
 26 15  2  0
 27 16  2  0
 28 13  1  0
 29 13  1  0
 30 11  1  0
 31 10  1  0
 32 10  1  0
 33 10  1  0
 34 11  1  0
 35 11  1  0
 36 24  2  0
 37 15  1  0
 38 14  1  0
 39 16  1  0
 40 18  1  0
 41 22  1  0
 42 22  1  0
 43 28  2  0
 44 28  1  0
 45 29  2  0
 46 29  1  0
 47 44  2  0
 48 45  1  0
 49 46  2  0
 50 43  1  0
 51 48  2  0
 52 47  1  0
  9  4  1  0
  5 12  1  0
 49 51  1  0
 52 50  2  0
 17 18  1  0
M  END
> <Library>
Bioactives

> <Batch>
2012

> <PLATE>
B1002L2012M01

> <WELL>
I7

> <EOS>
EOS100381

> <CCMF_source_vial_barcode>
LV2001696231

> <concentration_mM>
10

> <volume_ul>
30

$$$$
EOS100382
  SciTegic04282016392D

 23 25  0  0  0  0            999 V2000
    2.5065   -0.6246    0.0000 C   0  0
    3.9458   -0.6246    0.0000 C   0  0  2  0  0  0
    3.2303   -1.0423    0.0000 C   0  0  1  0  0  0
    2.5065    0.1861    0.0000 C   0  0
    3.9458    0.1861    0.0000 O   0  0
    3.2303    0.5956    0.0000 C   0  0
    1.7785   -1.0423    0.0000 C   0  0
    3.2303   -1.8654    0.0000 O   0  0
    4.6655   -1.0423    0.0000 C   0  0  2  0  0  0
    1.0671   -0.6246    0.0000 C   0  0
    4.6655   -1.8654    0.0000 C   0  0  1  0  0  0
    3.9458   -2.2707    0.0000 C   0  0  1  0  0  0
    1.7785    0.5956    0.0000 C   0  0
    1.0671    0.1861    0.0000 C   0  0
    3.2303    1.4104    0.0000 O   0  0
    1.7785   -1.8488    0.0000 O   0  0
    5.3728   -0.6452    0.0000 O   0  0
    5.3728   -2.2707    0.0000 O   0  0
    0.3392   -1.0423    0.0000 O   0  0
    0.3392    0.5956    0.0000 O   0  0
    3.9458   -3.0814    0.0000 C   0  0
    4.6407   -3.4909    0.0000 O   0  0
   -0.3598   -0.6328    0.0000 C   0  0
  2  3  1  0
  3  1  1  0
  4  1  2  0
  5  6  1  0
  6  4  1  0
  7  1  1  0
  3  8  1  1
  2  9  1  0
 10  7  2  0
 11 12  1  0
 12  8  1  0
 13  4  1  0
 14 10  1  0
 15  6  2  0
 16  7  1  0
  9 17  1  1
 11 18  1  6
 19 10  1  0
 20 14  1  0
 12 21  1  1
 22 21  1  0
 23 19  1  0
 14 13  2  0
  2  5  1  6
  9 11  1  0
M  END
> <Library>
Bioactives

> <Batch>
2012

> <PLATE>
B1002L2012M01

> <WELL>
K7

> <EOS>
EOS100382

> <CCMF_source_vial_barcode>
LV2001696255

> <concentration_mM>
10

> <volume_ul>
30

$$$$
EOS100383
  SciTegic04282016392D

  7  6  0  0  0  0            999 V2000
    1.0644    0.2071    0.0000 C   0  0
    1.0644   -0.6168    0.0000 O   0  0
    1.7792    0.6190    0.0000 O   0  0
   -1.7814    0.2071    0.0000 N   0  0
    0.3496    0.6190    0.0000 C   0  0
   -1.0689    0.6190    0.0000 C   0  0
   -0.3541    0.2071    0.0000 C   0  0
  2  1  2  0
  3  1  1  0
  4  6  1  0
  5  1  1  0
  6  7  1  0
  7  5  1  0
M  END
> <Library>
Bioactives

> <Batch>
2012

> <PLATE>
B1002L2012M01

> <WELL>
M7

> <EOS>
EOS100383

> <CCMF_source_vial_barcode>
LV2001695088

> <concentration_mM>
10

> <volume_ul>
30

$$$$
EOS100384
  SciTegic04282016392D

 25 27  0  0  0  0            999 V2000
    1.5030   -0.8843    0.0000 C   0  0
    0.7885   -1.2968    0.0000 C   0  0
    0.7885   -2.1219    0.0000 C   0  0
    1.5030   -2.5381    0.0000 C   0  0
    2.2174   -2.1219    0.0000 C   0  0
    2.2174   -1.2968    0.0000 C   0  0
    2.9315   -2.5342    0.0000 F   0  0
    2.9315   -0.8843    0.0000 F   0  0
    1.5030   -0.0592    0.0000 N   0  0
    0.0744   -0.8879    0.0000 C   0  0
   -0.6400   -1.2968    0.0000 N   0  0
   -1.3541   -0.8879    0.0000 O   0  0
   -2.0685   -1.2968    0.0000 C   0  0
   -2.7829   -0.8879    0.0000 C   0  0
    2.0873    0.5254    0.0000 C   0  0
    2.9124    0.5254    0.0000 C   0  0
    3.3250    1.2395    0.0000 C   0  0
    2.9124    1.9539    0.0000 C   0  0
    2.0873    1.9539    0.0000 C   0  0
    1.6748    1.2395    0.0000 C   0  0
    3.4970   -0.0592    0.0000 Cl  0  0
    3.4970    2.5381    0.0000 I   0  0
    0.0744   -0.0631    0.0000 O   0  0
   -3.4970   -0.4756    0.0000 C   0  0
   -3.4970   -1.3007    0.0000 C   0  0
  1  2  2  0
  2  3  1  0
  3  4  2  0
  4  5  1  0
  5  6  2  0
  1  6  1  0
  5  7  1  0
  6  8  1  0
  1  9  1  0
  2 10  1  0
 10 11  1  0
 11 12  1  0
 12 13  1  0
 13 14  1  0
  9 15  1  0
 15 16  2  0
 16 17  1  0
 17 18  2  0
 18 19  1  0
 19 20  2  0
 15 20  1  0
 16 21  1  0
 18 22  1  0
 10 23  2  0
 14 24  1  0
 24 25  1  0
 14 25  1  0
M  END
> <Library>
Bioactives

> <Batch>
2012

> <PLATE>
B1002L2012M01

> <WELL>
O7

> <EOS>
EOS100384

> <CCMF_source_vial_barcode>
LV2001695076

> <concentration_mM>
10

> <volume_ul>
30

$$$$
EOS100385
  SciTegic04282016392D

 10  9  0  0  0  0            999 V2000
    1.4311    2.0655    0.0000 C   0  0  1  0  0  0
    2.1467    2.4761    0.0000 C   0  0
    1.4311    1.2393    0.0000 N   0  0
    0.7156    0.8262    0.0000 C   0  0
    2.1467    3.3023    0.0000 O   0  0
    0.7156    0.0000    0.0000 O   0  0
    2.8622    2.0655    0.0000 O   0  0
    0.0000    2.0655    0.0000 S   0  0
    0.7156    2.4761    0.0000 C   0  0
    0.0000    1.2393    0.0000 C   0  0
  1  2  1  0
  1  3  1  1
  4  3  1  0
  5  2  2  0
  6  4  2  0
  7  2  1  0
  8  9  1  0
  1  9  1  0
 10  4  1  0
M  END
> <Library>
Bioactives

> <Batch>
2012

> <PLATE>
B1002L2012M01

> <WELL>
A9

> <EOS>
EOS100385

> <CCMF_source_vial_barcode>
LV2001695124

> <concentration_mM>
10

> <volume_ul>
30

$$$$
EOS100386
  SciTegic04282016392D

 24 25  0  0  0  0            999 V2000
   -0.1037   -1.2895    0.0000 C   0  0
    0.7033   -1.1180    0.0000 C   0  0
    0.9583   -0.3333    0.0000 C   0  0
    1.7652   -0.1618    0.0000 C   0  0
    2.3173   -0.7749    0.0000 C   0  0
    3.1242   -0.6034    0.0000 O   0  0
    3.6763   -1.2165    0.0000 C   0  0
    2.0623   -1.5595    0.0000 O   0  0
    2.0202    0.6228    0.0000 N   0  0
    1.4681    1.2359    0.0000 C   0  0
    0.6612    1.0644    0.0000 C   0  0
    0.4062    0.2797    0.0000 C   0  0
   -0.4188    0.2797    0.0000 C   0  0
   -0.9708   -0.3333    0.0000 C   0  0
   -1.7778   -0.1618    0.0000 C   0  0
   -2.3298   -0.7749    0.0000 O   0  0
   -3.1368   -0.6034    0.0000 C   0  0
   -2.0327    0.6228    0.0000 C   0  0
   -2.8397    0.7943    0.0000 O   0  0
   -3.3917    0.1812    0.0000 C   0  0
   -1.4807    1.2359    0.0000 C   0  0
   -0.6737    1.0644    0.0000 C   0  0
   -0.0063    1.5493    0.0000 N   0  0
    5.9155    0.0000    0.0000 Cl  0  0
  1  2  1  0
  2  3  1  0
  3  4  2  0
  4  5  1  0
  5  6  1  0
  6  7  1  0
  5  8  2  0
  4  9  1  0
  9 10  2  0
 10 11  1  0
 11 12  2  0
  3 12  1  0
 12 13  1  0
 13 14  1  0
 14 15  2  0
 15 16  1  0
 16 17  1  0
 15 18  1  0
 18 19  1  0
 19 20  1  0
 18 21  2  0
 21 22  1  0
 13 22  2  0
 22 23  1  0
 11 23  1  0
M  END
> <Library>
Bioactives

> <Batch>
2012

> <PLATE>
B1002L2012M01

> <WELL>
C9

> <EOS>
EOS100386

> <CCMF_source_vial_barcode>
LV2001695125

> <concentration_mM>
10

> <volume_ul>
30

$$$$
EOS100387
  SciTegic04282016392D

 30 34  0  0  1  0            999 V2000
   -1.8750   -1.9752    0.0000 C   0  0
   -2.5801   -1.5745    0.0000 C   0  0
   -1.8750   -0.3646    0.0000 C   0  0  2  0  0  0
   -2.5801   -0.7692    0.0000 C   0  0
   -3.2773   -2.9608    0.0000 N   0  0
   -1.1739   -0.7692    0.0000 C   0  0  2  0  0  0
   -0.4647   -0.3646    0.0000 N   0  0
   -1.8710   -2.9608    0.0000 C   0  0
   -3.2773   -1.9752    0.0000 C   0  0
   -1.1739   -1.5745    0.0000 C   0  0
    0.3045    1.7308    0.0000 C   0  0
   -0.4647    0.4287    0.0000 C   0  0
   -1.8750    0.4287    0.0000 C   0  0
   -1.1739    0.8373    0.0000 C   0  0  1  0  0  0
   -0.4327    2.1354    0.0000 N   0  0
    0.3045    0.8774    0.0000 O   0  0
    1.0137    2.1595    0.0000 O   0  0
   -1.1739    1.7027    0.0000 C   0  0
   -3.2773   -0.3646    0.0000 C   0  0
   -3.9984   -3.4536    0.0000 C   0  0
    0.2764   -0.7973    0.0000 C   0  0
    1.7709    1.7308    0.0000 C   0  0
   -3.9984   -1.5745    0.0000 C   0  0
    2.5121    2.1595    0.0000 C   0  0
   -3.9984   -0.7692    0.0000 C   0  0
    3.2613    1.7388    0.0000 C   0  0
    2.5121    3.0128    0.0000 C   0  0
    3.9825    2.1715    0.0000 C   0  0
    3.2452    3.4576    0.0000 C   0  0
    3.9825    3.0489    0.0000 C   0  0
  2  1  1  0
  3  6  1  0
  4  2  2  0
  5  8  1  0
  6 10  1  0
  6  7  1  6
  8  1  2  0
  9  2  1  0
 10  1  1  0
 11 15  1  0
 12  7  1  0
  3 13  1  1
 14 12  1  0
 15 18  1  0
 16 11  2  0
 17 11  1  0
 14 18  1  1
 19  4  1  0
 20  5  1  0
 21  7  1  0
 22 17  1  0
 23  9  2  0
 24 22  1  0
 25 23  1  0
 26 24  2  0
 27 24  1  0
 28 26  1  0
 29 27  2  0
 30 29  1  0
  9  5  1  0
  3  4  1  0
 19 25  2  0
 14 13  1  0
 28 30  2  0
M  END
> <Library>
Bioactives

> <Batch>
2012

> <PLATE>
B1002L2012M01

> <WELL>
E9

> <EOS>
EOS100387

> <CCMF_source_vial_barcode>
LV2001695126

> <concentration_mM>
10

> <volume_ul>
30

$$$$
EOS100388
  SciTegic04282016392D

 36 39  0  0  0  0            999 V2000
    1.0735   -0.0624    0.0000 C   0  0
    1.7880    0.3501    0.0000 O   0  0
    2.5025   -0.0624    0.0000 C   0  0
    3.2169    0.3501    0.0000 C   0  0
    3.9314   -0.0624    0.0000 C   0  0
    4.5445    0.4897    0.0000 N   0  0
    4.2089    1.2433    0.0000 O   0  0
    3.3885    1.1571    0.0000 C   0  0
    4.1449   -0.8593    0.0000 C   0  0
    3.5616   -1.4426    0.0000 C   0  0
    3.7751   -2.2395    0.0000 C   0  0
    4.5720   -2.4530    0.0000 C   0  0
    5.1553   -1.8697    0.0000 C   0  0
    4.9418   -1.0728    0.0000 C   0  0
    5.3543   -0.3583    0.0000 Cl  0  0
    0.3590    0.3501    0.0000 C   0  0
   -0.3554   -0.0624    0.0000 C   0  0
   -0.3554   -0.8874    0.0000 C   0  0
    0.3590   -1.2999    0.0000 C   0  0
    1.0735   -0.8874    0.0000 C   0  0
    0.3590   -2.1249    0.0000 Cl  0  0
   -1.0699   -1.2999    0.0000 C   0  0
   -1.7844   -0.8874    0.0000 C   0  0
   -2.4988   -1.2999    0.0000 C   0  0
   -3.2133   -0.8874    0.0000 C   0  0
   -3.9278   -1.2999    0.0000 C   0  0
   -3.9278   -2.1249    0.0000 C   0  0
   -3.2133   -2.5374    0.0000 C   0  0
   -2.4988   -2.1249    0.0000 C   0  0
    2.8051    1.7405    0.0000 C   0  0
    2.7647   -1.2291    0.0000 Cl  0  0
    3.0186    2.5374    0.0000 C   0  0
    1.9801    1.7405    0.0000 C   0  0
   -4.6422   -0.8874    0.0000 C   0  0
   -5.3543   -1.2985    0.0000 O   0  0
   -4.6422   -0.0651    0.0000 O   0  0
  1  2  1  0
  2  3  1  0
  3  4  1  0
  4  5  1  0
  5  6  2  0
  6  7  1  0
  7  8  1  0
  8  4  2  0
  5  9  1  0
  9 10  2  0
 10 11  1  0
 11 12  2  0
 12 13  1  0
 13 14  2  0
 14  9  1  0
 14 15  1  0
  1 16  2  0
 16 17  1  0
 17 18  2  0
 18 19  1  0
 19 20  2  0
 20  1  1  0
 19 21  1  0
 18 22  1  0
 22 23  2  0
 23 24  1  0
 24 25  2  0
 25 26  1  0
 26 27  2  0
 27 28  1  0
 28 29  2  0
 29 24  1  0
  8 30  1  0
 10 31  1  0
 30 32  1  0
 30 33  1  0
 26 34  1  0
 34 35  2  0
 34 36  1  0
M  END
> <Library>
Bioactives

> <Batch>
2012

> <PLATE>
B1002L2012M01

> <WELL>
G9

> <EOS>
EOS100388

> <CCMF_source_vial_barcode>
LV2001695082

> <concentration_mM>
10

> <volume_ul>
30

$$$$
EOS100389
  SciTegic04282016392D

 17 18  0  0  0  0            999 V2000
   -5.0607    1.1005    0.0000 N   0  0
   -4.3462    1.5129    0.0000 C   0  0
   -3.6317    1.1004    0.0000 C   0  0
   -3.6317    0.2754    0.0000 C   0  0
   -4.3462   -0.1371    0.0000 C   0  0
   -5.0607    0.2754    0.0000 C   0  0
   -5.7751   -0.1371    0.0000 C   0  0
   -2.9174    1.5128    0.0000 C   0  0
   -2.2030    1.0999    0.0000 O   0  0
   -2.9173    2.3378    0.0000 C   0  0
   -3.6317    2.7503    0.0000 C   0  0
   -4.3462    2.3378    0.0000 N   0  0
   -5.0607    2.7503    0.0000 C   0  0
   -5.7751    2.3378    0.0000 C   0  0
   -2.2028    2.7502    0.0000 C   0  0
   -1.4884    2.3376    0.0000 O   0  0
   -2.2027    3.5751    0.0000 O   0  0
  1  2  2  0
  2  3  1  0
  3  4  2  0
  4  5  1  0
  5  6  2  0
  6  1  1  0
  6  7  1  0
  3  8  1  0
  8  9  2  0
  8 10  1  0
 10 11  2  0
 11 12  1  0
 12  2  1  0
 12 13  1  0
 13 14  1  0
 10 15  1  0
 15 16  2  0
 15 17  1  0
M  END
> <Library>
Bioactives

> <Batch>
2012

> <PLATE>
B1002L2012M01

> <WELL>
I9

> <EOS>
EOS100389

> <CCMF_source_vial_barcode>
LV2001696272

> <concentration_mM>
10

> <volume_ul>
30

$$$$
EOS100390
  SciTegic04282016392D

  9  9  0  0  0  0            999 V2000
    3.6261   -1.6414    0.0000 C   0  0
    2.9169   -2.0590    0.0000 C   0  0
    3.6204   -0.8178    0.0000 O   0  0
    2.2020   -3.3001    0.0000 N   0  0
    4.3410   -2.0476    0.0000 O   0  0
    2.9169   -2.8883    0.0000 C   0  0
    2.2020   -1.6472    0.0000 C   0  0
    1.4928   -2.8883    0.0000 C   0  0
    1.4928   -2.0590    0.0000 C   0  0
  2  1  1  0
  3  1  2  0
  4  6  1  0
  5  1  1  0
  6  2  2  0
  7  2  1  0
  8  9  1  0
  9  7  2  0
  4  8  2  0
M  END
> <Library>
Bioactives

> <Batch>
2012

> <PLATE>
B1002L2012M01

> <WELL>
K9

> <EOS>
EOS100390

> <CCMF_source_vial_barcode>
LV2001696271

> <concentration_mM>
10

> <volume_ul>
30

$$$$
EOS100391
  SciTegic04282016392D

 34 35  0  0  0  0            999 V2000
    7.9345   -3.3944    0.0000 N   0  0
    8.2925   -4.1377    0.0000 C   0  0
    9.0968   -4.3213    0.0000 C   0  0
    9.7418   -3.8069    0.0000 C   0  0
    9.7418   -2.9819    0.0000 C   0  0
    9.0968   -2.4675    0.0000 C   0  0
    8.2925   -2.6511    0.0000 C   0  0
   10.4563   -2.5694    0.0000 C   0  0
   11.1708   -2.9819    0.0000 C   0  0
   11.1708   -3.8069    0.0000 C   0  0
   10.4563   -4.2194    0.0000 C   0  0
    7.7781   -4.7827    0.0000 O   0  0
   11.8853   -4.2194    0.0000 O   0  0
   12.5997   -3.8069    0.0000 C   0  0
   11.8853   -2.5694    0.0000 O   0  0
   12.5997   -2.9819    0.0000 C   0  0
    7.1095   -3.3944    0.0000 C   0  0
    6.6970   -2.6799    0.0000 C   0  0
    5.8720   -2.6799    0.0000 C   0  0
    5.4595   -1.9655    0.0000 N   0  0
    5.8720   -1.2510    0.0000 C   0  0
    4.6345   -1.9655    0.0000 C   0  0
    4.2220   -1.2510    0.0000 C   0  0
    3.3970   -1.2510    0.0000 C   0  0
    2.9845   -1.9655    0.0000 C   0  0
    2.1595   -1.9655    0.0000 C   0  0
    1.7470   -1.2510    0.0000 C   0  0
    2.1595   -0.5365    0.0000 C   0  0
    2.9845   -0.5365    0.0000 C   0  0
    0.9220   -1.2510    0.0000 O   0  0
    0.5095   -0.5365    0.0000 C   0  0
    1.7470   -2.6799    0.0000 O   0  0
    0.9220   -2.6799    0.0000 C   0  0
    7.2145   -1.7820    0.0000 Cl  0  0
  1  2  1  0
  2  3  1  0
  3  4  1  0
  4  5  2  0
  5  6  1  0
  6  7  1  0
  1  7  1  0
  8  9  2  0
  9 10  1  0
 10 11  2  0
  4 11  1  0
  5  8  1  0
  2 12  2  0
 13 14  1  0
 10 13  1  0
 15 16  1  0
  9 15  1  0
 17 18  1  0
 18 19  1  0
 20 21  1  0
 22 23  1  0
 24 25  2  0
 25 26  1  0
 26 27  2  0
 27 28  1  0
 28 29  2  0
 24 29  1  0
 30 31  1  0
 27 30  1  0
 32 33  1  0
 26 32  1  0
 23 24  1  0
 20 22  1  0
 19 20  1  0
  1 17  1  0
M  END
> <Library>
Bioactives

> <Batch>
2012

> <PLATE>
B1002L2012M01

> <WELL>
M9

> <EOS>
EOS100391

> <CCMF_source_vial_barcode>
LV2001695661

> <concentration_mM>
10

> <volume_ul>
30

$$$$
EOS100392
  SciTegic04282016392D

 35 38  0  0  0  0            999 V2000
    2.8579    1.2375    0.0000 C   0  0
    2.8579    0.4125    0.0000 C   0  0
    3.5724    0.0000    0.0000 C   0  0
    4.2868    0.4125    0.0000 C   0  0
    4.2868    1.2375    0.0000 C   0  0
    3.5724    1.6500    0.0000 C   0  0
    3.5724    2.4750    0.0000 C   0  0  2  0  0  0
    2.8579    2.8875    0.0000 N   0  0
    4.2868    2.8875    0.0000 C   0  0
    5.0013    2.4750    0.0000 N   0  0
    4.2868    3.7125    0.0000 O   0  0
    5.0875    1.6545    0.0000 C   0  0
    5.8945    1.4830    0.0000 C   0  0
    6.3070    2.1974    0.0000 C   0  0
    5.7550    2.8105    0.0000 C   0  0  1  0  0  0
    5.9265    3.6175    0.0000 C   0  0
    6.6802    3.9531    0.0000 N   0  0
    6.5939    4.7736    0.0000 C   0  0
    5.7870    4.9451    0.0000 C   0  0
    5.3745    4.2306    0.0000 S   0  0
    7.2070    5.3256    0.0000 C   0  0
    7.9917    5.0707    0.0000 C   0  0
    7.0355    6.1326    0.0000 O   0  0
    8.1632    4.2637    0.0000 C   0  0
    8.9478    4.0087    0.0000 C   0  0
    9.5609    4.5608    0.0000 C   0  0
    9.3894    5.3678    0.0000 C   0  0
    8.6048    5.6227    0.0000 C   0  0
   10.3455    4.3059    0.0000 F   0  0
    2.1434    2.4750    0.0000 C   0  0
    1.4290    2.8875    0.0000 C   0  0  1  0  0  0
    0.7145    2.4750    0.0000 N   0  0
    0.0000    2.8875    0.0000 C   0  0
    2.1434    1.6500    0.0000 O   0  0
    1.4290    3.7125    0.0000 C   0  0
  1  2  1  0
  2  3  1  0
  3  4  1  0
  4  5  1  0
  5  6  1  0
  6  1  1  0
  7  6  1  0
  7  8  1  6
  7  9  1  0
  9 10  1  0
  9 11  2  0
 10 12  1  0
 12 13  1  0
 13 14  1  0
 15 14  1  0
 15 10  1  6
 15 16  1  0
 16 17  2  0
 17 18  1  0
 18 19  2  0
 19 20  1  0
 20 16  1  0
 18 21  1  0
 21 22  1  0
 21 23  2  0
 22 24  2  0
 24 25  1  0
 25 26  2  0
 26 27  1  0
 27 28  2  0
 28 22  1  0
 26 29  1  0
  8 30  1  0
 31 30  1  0
 31 32  1  0
 32 33  1  0
 30 34  2  0
 31 35  1  1
M  END
> <Library>
Bioactives

> <Batch>
2012

> <PLATE>
B1002L2012M01

> <WELL>
O9

> <EOS>
EOS100392

> <CCMF_source_vial_barcode>
LV2001695594

> <concentration_mM>
10

> <volume_ul>
30

$$$$
EOS100393
  SciTegic04282016392D

 29 32  0  0  0  0            999 V2000
   -2.5279   -0.4795    0.0000 C   0  0
   -2.5279   -1.3049    0.0000 C   0  0
   -1.8132   -1.7178    0.0000 C   0  0
   -1.1023   -1.3049    0.0000 C   0  0
   -1.1023   -0.4795    0.0000 C   0  0  2  0  0  0
   -1.8132   -0.0668    0.0000 C   0  0
   -0.3879   -1.7178    0.0000 C   0  0  2  0  0  0
    0.3229   -1.3049    0.0000 C   0  0
    0.3229   -0.4795    0.0000 C   0  0  2  0  0  0
   -0.3879   -0.0668    0.0000 C   0  0  2  0  0  0
    1.0337   -0.0668    0.0000 C   0  0  1  0  0  0
    1.0337    0.7547    0.0000 C   0  0  2  0  0  0
    0.3229    1.1672    0.0000 C   0  0
   -0.3879    0.7547    0.0000 C   0  0  2  0  0  0
    1.8132   -0.3192    0.0000 C   0  0
    2.2909    0.3457    0.0000 C   0  0  2  0  0  0
    1.8132    1.0031    0.0000 C   0  0  2  0  0  0
   -3.2423   -1.7178    0.0000 O   0  0
    1.8132    1.8285    0.0000 C   0  0
    2.5279    2.2411    0.0000 C   0  0
    3.2423    1.8285    0.0000 O   0  0
    1.4006    2.5429    0.0000 O   0  0
   -1.1023    0.3457    0.0000 C   0  0
   -0.9724    1.3392    0.0000 O   0  0
    1.0337    1.5802    0.0000 C   0  0
    2.6117    1.2172    0.0000 O   0  0
    3.0894    0.5597    0.0000 C   0  0
   -0.3879   -2.5429    0.0000 F   0  0
   -0.3879   -0.8923    0.0000 F   0  0
  1  2  1  0
  2  3  1  0
  3  4  2  0
  5  4  1  0
  5  6  1  0
  1  6  2  0
  7  4  1  0
  7  8  1  0
  9  8  1  6
 10  9  1  0
 10  5  1  0
  9 11  1  0
 11 12  1  0
 12 13  1  0
 14 13  1  0
 10 14  1  0
 11 15  1  1
 16 15  1  0
 17 16  1  0
 12 17  1  0
  2 18  2  0
 17 19  1  1
 19 20  1  0
 20 21  1  0
 19 22  2  0
  5 23  1  1
 14 24  1  1
 12 25  1  1
 17 26  1  6
 16 27  1  6
  7 28  1  6
 10 29  1  6
M  END
> <Library>
Bioactives

> <Batch>
2012

> <PLATE>
B1002L2012M01

> <WELL>
A11

> <EOS>
EOS100393

> <CCMF_source_vial_barcode>
LV2001695070

> <concentration_mM>
10

> <volume_ul>
30

$$$$
EOS100394
  SciTegic04282016392D

 16 18  0  0  0  0            999 V2000
    0.5344   -1.2452    0.0000 C   0  0
   -0.1815   -1.6551    0.0000 C   0  0
   -0.8975   -1.2452    0.0000 C   0  0
    1.2504   -1.6551    0.0000 O   0  0
    0.5344   -0.4358    0.0000 C   0  0
   -0.8975   -0.4358    0.0000 C   0  0
    1.9922   -1.2452    0.0000 C   0  0
    1.2504   -0.0052    0.0000 C   0  0
   -0.1815   -0.0052    0.0000 C   0  0
    1.9922   -0.4358    0.0000 C   0  0
   -1.6965   -1.4942    0.0000 O   0  0
   -2.1582   -0.8301    0.0000 C   0  0
   -1.6965   -0.1868    0.0000 C   0  0
    2.6979   -1.6551    0.0000 O   0  0
   -0.1815   -2.4644    0.0000 O   0  0
   -0.8664   -2.8639    0.0000 C   0  0
  2  1  2  0
  3  2  1  0
  4  1  1  0
  5  1  1  0
  6  9  1  0
  7  4  1  0
  8  5  1  0
  9  5  2  0
 10  8  2  0
 11  3  1  0
 12 11  1  0
 13  6  1  0
 14  7  2  0
 15  2  1  0
 16 15  1  0
  6  3  2  0
 10  7  1  0
 12 13  2  0
M  END
> <Library>
Bioactives

> <Batch>
2012

> <PLATE>
B1002L2012M01

> <WELL>
C11

> <EOS>
EOS100394

> <CCMF_source_vial_barcode>
LV2001696237

> <concentration_mM>
10

> <volume_ul>
30

$$$$
EOS100395
  SciTegic04282016392D

 17 19  0  0  0  0            999 V2000
    0.0024    0.3153    0.0000 C   0  0
    0.7029   -0.0963    0.0000 C   0  0
   -0.7077   -0.0963    0.0000 C   0  0
    0.7029   -0.9244    0.0000 C   0  0
   -0.7077   -0.9244    0.0000 C   0  0
    0.0024   -1.3385    0.0000 C   0  0
    0.0024    1.2470    0.0000 O   0  0
    1.4179    0.3153    0.0000 C   0  0
   -1.4227    0.3153    0.0000 C   0  0
    1.4179   -1.3385    0.0000 C   0  0
   -1.4227   -1.3385    0.0000 C   0  0
    1.4179    1.1194    0.0000 O   0  0
   -1.4227    1.1458    0.0000 O   0  0
    2.1257   -0.9244    0.0000 C   0  0
   -2.1280   -0.9244    0.0000 C   0  0
    2.1257   -0.0963    0.0000 C   0  0
   -2.1280   -0.0963    0.0000 C   0  0
  2  1  1  0
  3  1  1  0
  4  2  2  0
  5  3  2  0
  6  5  1  0
  7  1  2  0
  8  2  1  0
  9  3  1  0
 10  4  1  0
 11  5  1  0
 12  8  1  0
 13  9  1  0
 14 16  1  0
 15 17  1  0
 16  8  2  0
 17  9  2  0
  6  4  1  0
 15 11  2  0
 14 10  2  0
M  END
> <Library>
Bioactives

> <Batch>
2012

> <PLATE>
B1002L2012M01

> <WELL>
E11

> <EOS>
EOS100395

> <CCMF_source_vial_barcode>
LV2001695057

> <concentration_mM>
10

> <volume_ul>
30

$$$$
EOS100396
  SciTegic04282016392D

 31 32  0  0  1  0            999 V2000
    7.2179   -6.5125    0.0000 N   0  0
    6.3929   -6.5125    0.0000 C   0  0
    6.3929   -5.7082    0.0000 C   0  0  2  0  0  0
    7.2179   -5.7082    0.0000 C   0  0  1  0  0  0
    7.9322   -6.9336    0.0000 C   0  0
    3.5642   -5.0401    0.0000 C   0  0
    4.3222   -4.8629    0.0000 C   0  0
    2.8497   -4.6828    0.0000 N   0  0
    5.8150   -5.1302    0.0000 N   0  0
    5.0134   -5.3306    0.0000 C   0  0
    7.9322   -5.2840    0.0000 S   0  0
    8.6467   -6.5329    0.0000 C   0  0
    2.2021   -5.1738    0.0000 C   0  0
    7.9322   -7.7586    0.0000 C   0  0
    3.3842   -5.8649    0.0000 C   0  0
    2.5592   -5.9316    0.0000 S   0  0
    8.6467   -5.6877    0.0000 C   0  0
    4.5430   -4.0817    0.0000 N   0  0
    5.8150   -7.1138    0.0000 O   0  0
    9.3582   -6.9802    0.0000 C   0  0
   10.0496   -8.2290    0.0000 C   0  0
    4.8334   -6.0887    0.0000 O   0  0
    7.1975   -8.1623    0.0000 O   0  5
    8.6236   -8.1825    0.0000 O   0  0
    9.3381   -7.8050    0.0000 O   0  0
   10.7639   -7.8253    0.0000 O   0  0
    1.3337   -5.0168    0.0000 N   0  0
   10.0293   -9.0538    0.0000 C   0  0
    5.6813   -8.1825    0.0000 Na  0  3
    5.1831   -3.7007    0.0000 O   0  0
    5.9104   -4.1079    0.0000 C   0  0
  4  3  1  0
  4  1  1  0
  1  5  1  0
  6  7  1  0
  7 10  1  0
  6  8  1  0
  3  9  1  1
  9 10  1  0
  4 11  1  1
  5 12  2  0
  8 13  2  0
  5 14  1  0
  6 15  2  0
 15 16  1  0
 12 17  1  0
  7 18  2  0
  2 19  2  0
 12 20  1  0
 21 25  1  0
 10 22  2  0
 14 23  1  0
 14 24  2  0
 20 25  1  0
 21 26  2  0
 13 27  1  0
 21 28  1  0
  3  2  1  0
 11 17  1  0
 13 16  1  0
 18 30  1  0
  1  2  1  0
 30 31  1  0
M  CHG  2  23  -1  29   1
M  END
> <Library>
Bioactives

> <Batch>
2012

> <PLATE>
B1002L2012M01

> <WELL>
G11

> <EOS>
EOS100396

> <CCMF_source_vial_barcode>
LV2001695094

> <concentration_mM>
10

> <volume_ul>
30

$$$$
EOS100397
  SciTegic04282016392D

 27 29  0  0  0  0            999 V2000
    0.0000    0.0000    0.0000 C   0  0
    0.7145   -0.4125    0.0000 C   0  0
    1.4289    0.0000    0.0000 C   0  0
    0.7145   -1.2375    0.0000 C   0  0
    1.3819   -1.7224    0.0000 C   0  0
    2.1665   -1.4675    0.0000 N   0  0
    2.7796   -2.0195    0.0000 C   0  0
    3.5642   -1.7646    0.0000 N   0  0
    3.7358   -0.9576    0.0000 C   0  0
    3.1227   -0.4056    0.0000 C   0  0
    3.2942    0.4014    0.0000 C   0  0
    4.0788    0.6563    0.0000 C   0  0
    4.2504    1.4633    0.0000 Cl  0  0
    4.6919    0.1043    0.0000 C   0  0
    4.5204   -0.7027    0.0000 C   0  0
    2.6081   -2.8265    0.0000 O   0  0
    1.1270   -2.5070    0.0000 C   0  0
    0.3020   -2.5070    0.0000 N   0  0
   -0.1830   -3.1745    0.0000 C   0  0
    0.1526   -3.9282    0.0000 C   0  0
   -0.3323   -4.5956    0.0000 C   0  0
   -1.1528   -4.5094    0.0000 C   0  0
   -1.4884   -3.7557    0.0000 C   0  0
   -1.0034   -3.0882    0.0000 C   0  0
    0.0470   -1.7224    0.0000 N   0  0
   -0.7376   -1.4675    0.0000 C   0  0
    1.6119   -3.1745    0.0000 O   0  0
  1  2  1  0
  2  3  1  0
  2  4  1  0
  4  5  2  0
  5  6  1  0
  6  7  1  0
  7  8  1  0
  8  9  1  0
  9 10  2  0
 10 11  1  0
 11 12  2  0
 12 13  1  0
 12 14  1  0
 14 15  2  0
  9 15  1  0
  7 16  2  0
  5 17  1  0
 17 18  1  0
 18 19  1  0
 19 20  2  0
 20 21  1  0
 21 22  2  0
 22 23  1  0
 23 24  2  0
 19 24  1  0
 18 25  1  0
  4 25  1  0
 25 26  1  0
 17 27  2  0
M  END
> <Library>
Bioactives

> <Batch>
2012

> <PLATE>
B1002L2012M01

> <WELL>
I11

> <EOS>
EOS100397

> <CCMF_source_vial_barcode>
LV2001695641

> <concentration_mM>
10

> <volume_ul>
30

$$$$
EOS100398
  SciTegic04282016392D

 20 22  0  0  0  0            999 V2000
   11.7635    0.4207    0.0000 C   0  0
   11.0387    0.0083    0.0000 C   0  0
   10.3222    0.4207    0.0000 C   0  0
   11.7635    1.2580    0.0000 C   0  0
   10.3264    1.2580    0.0000 C   0  0
   11.0387    1.6745    0.0000 O   0  0
   12.4716    0.0083    0.0000 C   0  0
    9.6099    0.0125    0.0000 C   0  0
    9.6099    1.6703    0.0000 C   0  0
   11.0387   -0.8165    0.0000 O   0  0
   12.4633   -0.8165    0.0000 C   0  0
   13.1839    0.4207    0.0000 C   0  0
    8.8976    1.2497    0.0000 C   0  0
    8.8976    0.4249    0.0000 C   0  0
   13.8962   -0.8248    0.0000 C   0  0
   13.8962    0.0083    0.0000 C   0  0
   13.1756   -1.2289    0.0000 C   0  0
    8.1853    1.6620    0.0000 O   0  0
   14.6085   -1.2372    0.0000 O   0  0
   15.3250   -0.8248    0.0000 C   0  0
  2  1  1  0
  3  2  1  0
  4  1  2  0
  5  6  1  0
  6  4  1  0
  7  1  1  0
  8  3  2  0
  9  5  2  0
 10  2  2  0
 11  7  2  0
 12  7  1  0
 13  9  1  0
 14  8  1  0
 15 16  1  0
 16 12  2  0
 17 11  1  0
 18 13  1  0
 19 15  1  0
 20 19  1  0
 17 15  2  0
  3  5  1  0
 14 13  2  0
M  END
> <Library>
Bioactives

> <Batch>
2012

> <PLATE>
B1002L2012M01

> <WELL>
K11

> <EOS>
EOS100398

> <CCMF_source_vial_barcode>
LV2001696220

> <concentration_mM>
10

> <volume_ul>
30

$$$$
EOS100399
  SciTegic04282016392D

 22 25  0  0  1  0            999 V2000
    4.3037   -2.5383    0.0000 O   0  0
    3.0304    1.7152    0.0000 O   0  0
    3.0304    0.0651    0.0000 N   0  0
    4.4594    1.7152    0.0000 N   0  0
    5.5563   -0.2344    0.0000 N   0  0
    3.0304   -0.7600    0.0000 C   0  0
    3.7204   -1.9549    0.0000 C   0  0
    2.3405   -1.9549    0.0000 C   0  0
    2.4602   -2.3138    0.0000 C   0  0
    3.7204   -1.1583    0.0000 C   0  0
    2.3405   -1.1583    0.0000 C   0  0
    2.4602   -1.4515    0.0000 C   0  0
    3.0304   -2.2047    0.0000 C   0  0
    3.2074   -2.7073    0.0000 C   0  0
    1.6501   -2.3533    0.0000 C   0  0
    3.7449    0.4777    0.0000 C   0  0
    3.7449    1.3027    0.0000 C   0  0
    5.2132    1.3797    0.0000 C   0  0  1  0  0  0
    4.5458    2.5358    0.0000 C   0  0
    5.7652    1.9928    0.0000 C   0  0
    5.3527    2.7073    0.0000 C   0  0
    5.3848    0.5725    0.0000 C   0  0
  1  7  1  0
  2 17  2  0
  3  6  1  0
  3 16  1  0
  4 17  1  0
 18  4  1  0
  4 19  1  0
  5 22  3  0
  6 10  1  0
  6 11  1  0
  6 12  1  0
  7 10  1  0
  7 13  1  0
  7 14  1  0
  8 11  1  0
  8 13  1  0
  8 15  1  0
  9 12  1  0
  9 14  1  0
  9 15  1  0
 16 17  1  0
 18 20  1  0
 18 22  1  1
 19 21  1  0
 20 21  1  0
M  END
> <Library>
Bioactives

> <Batch>
2012

> <PLATE>
B1002L2012M01

> <WELL>
M11

> <EOS>
EOS100399

> <CCMF_source_vial_barcode>
LV2001695119

> <concentration_mM>
10

> <volume_ul>
30

$$$$
EOS100400
  SciTegic04282016392D

 36 38  0  0  0  0            999 V2000
   -2.1434    1.2375    0.0000 N   0  0
   -2.1434    2.0625    0.0000 C   0  0
   -1.4289    2.4750    0.0000 C   0  0
   -0.7145    2.0625    0.0000 C   0  0
   -0.7145    1.2375    0.0000 N   0  0
    0.0000    0.8250    0.0000 C   0  0
    0.0000    0.0000    0.0000 C   0  0
   -0.7145   -0.4125    0.0000 N   0  0
   -0.7145   -1.2375    0.0000 C   0  0
   -1.4289   -1.6500    0.0000 C   0  0
   -2.1434   -1.2375    0.0000 C   0  0
   -2.1434   -0.4125    0.0000 N   0  0
   -2.8579    0.0000    0.0000 C   0  0
   -2.8579    0.8250    0.0000 C   0  0
    0.0000   -0.8250    0.0000 C   0  0
    0.0000   -1.6500    0.0000 C   0  0
    0.7145   -2.0625    0.0000 C   0  0
    0.7145   -2.8875    0.0000 C   0  0
    0.0000   -3.3000    0.0000 C   0  0
   -0.7145   -2.8875    0.0000 C   0  0
   -0.7145   -2.0625    0.0000 C   0  0
    0.0000   -4.1250    0.0000 C   0  0
   -0.7145   -4.5375    0.0000 N   0  0
    0.0000   -4.9500    0.0000 C   0  0
    0.0000   -5.7750    0.0000 C   0  0
   -0.7145   -6.1875    0.0000 C   0  0
   -1.4289   -5.7750    0.0000 N   0  0
   -2.1434   -6.1875    0.0000 C   0  0
   -2.8579   -5.7750    0.0000 C   0  0
   -2.8579   -4.9500    0.0000 N   0  0
   -3.5724   -4.5375    0.0000 C   0  0
   -3.5724   -3.7125    0.0000 C   0  0
   -2.8579   -3.3000    0.0000 C   0  0
   -2.1434   -3.7125    0.0000 N   0  0
   -1.4289   -3.3000    0.0000 C   0  0
   -0.7145   -3.7125    0.0000 C   0  0
  1  2  1  0
  2  3  1  0
  3  4  1  0
  4  5  1  0
  5  6  1  0
  6  7  1  0
  7  8  1  0
  8  9  1  0
  9 10  1  0
 10 11  1  0
 11 12  1  0
 12 13  1  0
 13 14  1  0
  1 14  1  0
  8 15  1  0
 15 16  1  0
 16 17  2  0
 17 18  1  0
 18 19  2  0
 19 20  1  0
 20 21  2  0
 16 21  1  0
 19 22  1  0
 22 23  1  0
 23 24  1  0
 24 25  1  0
 25 26  1  0
 26 27  1  0
 27 28  1  0
 28 29  1  0
 29 30  1  0
 30 31  1  0
 31 32  1  0
 32 33  1  0
 33 34  1  0
 34 35  1  0
 35 36  1  0
 23 36  1  0
M  END
> <Library>
Bioactives

> <Batch>
2012

> <PLATE>
B1002L2012M01

> <WELL>
O11

> <EOS>
EOS100400

> <CCMF_source_vial_barcode>
LV2001695584

> <concentration_mM>
10

> <volume_ul>
30

$$$$
EOS100401
  SciTegic04282016392D

 28 31  0  0  0  0            999 V2000
   -1.5150    0.5230    0.0000 C   0  0
   -0.8006    0.9355    0.0000 C   0  0
   -0.8006    1.7605    0.0000 C   0  0
   -1.5150    2.1730    0.0000 C   0  0
   -2.2295    1.7605    0.0000 C   0  0
   -2.2295    0.9355    0.0000 N   0  0
    0.4690    1.3480    0.0000 N   0  0
   -0.0159    2.0155    0.0000 N   0  0
   -0.0159    0.6806    0.0000 C   0  0
    0.2390   -0.1040    0.0000 O   0  0
   -2.9440    2.1730    0.0000 O   0  0
   -2.9440    0.5230    0.0000 C   0  0
   -1.5150   -0.3020    0.0000 C   0  0
   -0.8006   -0.7145    0.0000 C   0  0
   -0.8006   -1.5395    0.0000 C   0  0
   -1.5150   -1.9520    0.0000 C   0  0
   -2.2295   -1.5395    0.0000 C   0  0
   -2.2295   -0.7145    0.0000 C   0  0
   -0.0861   -1.9520    0.0000 N   0  0
   -0.0861   -2.7770    0.0000 C   0  0
    0.6284   -1.5395    0.0000 C   0  0
    1.2940    1.3480    0.0000 C   0  0
    1.7065    2.0625    0.0000 C   0  0
    2.5315    2.0625    0.0000 C   0  0
    2.9440    1.3480    0.0000 C   0  0
    2.5315    0.6336    0.0000 C   0  0
    1.7065    0.6336    0.0000 C   0  0
    1.2940    2.7770    0.0000 Cl  0  0
  1  2  2  0
  2  3  1  0
  3  4  2  0
  4  5  1  0
  5  6  1  0
  1  6  1  0
  7  8  1  0
  7  9  1  0
  2  9  1  0
  3  8  1  0
  9 10  2  0
  5 11  2  0
  6 12  1  0
 13 14  2  0
 14 15  1  0
 15 16  2  0
 16 17  1  0
 17 18  2  0
 13 18  1  0
 19 20  1  0
 19 21  1  0
 15 19  1  0
  1 13  1  0
 22 23  2  0
 23 24  1  0
 24 25  2  0
 25 26  1  0
 26 27  2  0
 22 27  1  0
 23 28  1  0
  7 22  1  0
M  END
> <Library>
Bioactives

> <Batch>
2012

> <PLATE>
B1002L2012M01

> <WELL>
A13

> <EOS>
EOS100401

> <CCMF_source_vial_barcode>
LV2001695072

> <concentration_mM>
10

> <volume_ul>
30

$$$$
EOS100402
  SciTegic04282016392D

 38 41  0  0  0  0            999 V2000
    3.4258    1.2375    0.0000 C   0  0
    3.4258    0.4125    0.0000 C   0  0
    4.1402    0.0000    0.0000 N   0  0
    4.8547    0.4125    0.0000 C   0  0
    4.8547    1.2375    0.0000 N   0  0
    4.1402    1.6500    0.0000 C   0  0
    2.6411    1.4924    0.0000 N   0  0
    2.1562    0.8250    0.0000 C   0  0
    2.6411    0.1576    0.0000 C   0  0
    4.1402    2.4750    0.0000 N   0  0
    4.8547    2.8875    0.0000 C   0  0
    2.3862    2.2771    0.0000 C   0  0
    1.5792    2.4486    0.0000 C   0  0
    1.5792    3.2736    0.0000 N   0  0
    0.9958    3.8569    0.0000 C   0  0
    1.4083    4.5714    0.0000 C   0  0
    0.8250    5.1548    0.0000 C   0  0
    0.2417    5.7382    0.0000 C   0  0
    1.4083    5.7382    0.0000 O   0  0
    0.0000    5.1548    0.0000 C   0  0
    0.1779    3.7493    0.0000 O   0  0
    5.5692    2.4750    0.0000 C   0  0
    6.2837    2.8875    0.0000 C   0  0
    6.2837    3.7125    0.0000 C   0  0
    5.5692    4.1250    0.0000 C   0  0
    4.8547    3.7125    0.0000 C   0  0
    6.9981    4.1250    0.0000 O   0  0
    7.7126    3.7125    0.0000 C   0  0
    6.9981    2.4750    0.0000 Cl  0  0
    7.7126    2.8875    0.0000 C   0  0
    8.4271    2.4750    0.0000 C   0  0
    9.1415    2.8875    0.0000 C   0  0
    9.1415    3.7125    0.0000 C   0  0
    8.4271    4.1250    0.0000 C   0  0
    9.8560    4.1250    0.0000 C   0  0
    9.4435    4.8395    0.0000 F   0  0
   10.5705    4.5375    0.0000 F   0  0
   10.2685    3.4106    0.0000 F   0  0
  1  2  1  0
  2  3  2  0
  3  4  1  0
  4  5  2  0
  5  6  1  0
  6  1  2  0
  1  7  1  0
  7  8  1  0
  8  9  2  0
  9  2  1  0
  6 10  1  0
 10 11  1  0
  7 12  1  0
 12 13  1  0
 13 14  1  0
 14 15  1  0
 15 16  1  0
 16 17  1  0
 17 18  1  0
 17 19  1  0
 17 20  1  0
 15 21  2  0
 11 22  2  0
 22 23  1  0
 23 24  2  0
 24 25  1  0
 25 26  2  0
 26 11  1  0
 24 27  1  0
 27 28  1  0
 23 29  1  0
 28 30  2  0
 30 31  1  0
 31 32  2  0
 32 33  1  0
 33 34  2  0
 34 28  1  0
 33 35  1  0
 35 36  1  0
 35 37  1  0
 35 38  1  0
M  END
> <Library>
Bioactives

> <Batch>
2012

> <PLATE>
B1002L2012M01

> <WELL>
C13

> <EOS>
EOS100402

> <CCMF_source_vial_barcode>
LV2001695080

> <concentration_mM>
10

> <volume_ul>
30

$$$$
EOS100403
  SciTegic04282016392D

 35 38  0  0  0  0            999 V2000
    0.7144    2.4750    0.0000 N   0  0
    0.7144    1.6500    0.0000 C   0  0
    1.4290    1.2375    0.0000 N   0  0
    2.1434    1.6500    0.0000 C   0  0
    2.1434    2.4750    0.0000 C   0  0
    1.4290    2.8875    0.0000 C   0  0
    1.4290    3.7125    0.0000 O   0  0
    0.0000    2.8875    0.0000 C   0  0
    0.0000    1.2375    0.0000 O   0  0
    1.4290    0.4125    0.0000 C   0  0
    2.1434    0.0000    0.0000 C   0  0
    0.7144    0.0000    0.0000 C   0  0
    2.9280    1.3951    0.0000 S   0  0
    3.4130    2.0625    0.0000 C   0  0
    2.9280    2.7299    0.0000 C   0  0
    3.1830    3.5146    0.0000 C   0  0
    2.6309    4.1277    0.0000 O   0  0
    3.9899    3.6861    0.0000 N   0  0
    4.2380    2.0625    0.0000 C   0  0
    4.6505    1.3480    0.0000 C   0  0
    4.3149    0.5944    0.0000 C   0  0
    4.9280    0.0423    0.0000 N   0  0
    5.6425    0.4548    0.0000 N   0  0
    5.4709    1.2618    0.0000 C   0  0
    3.5079    0.4228    0.0000 C   0  0
    6.0230    1.8749    0.0000 C   0  0
    5.7680    2.6595    0.0000 F   0  0
    6.8299    1.7034    0.0000 F   0  0
    6.5750    2.4880    0.0000 F   0  0
    4.6030    3.1341    0.0000 O   0  0
    5.3175    3.5466    0.0000 C   0  0
    5.1460    4.3535    0.0000 C   0  0  2  0  0  0
    4.3255    4.4397    0.0000 C   0  0
    5.6980    4.9666    0.0000 O   0  0
    4.8504    5.1237    0.0000 C   0  0
  1  2  1  0
  2  3  1  0
  3  4  1  0
  4  5  2  0
  5  6  1  0
  6  1  1  0
  6  7  2  0
  1  8  1  0
  2  9  2  0
  3 10  1  0
 10 11  1  0
 10 12  1  0
  4 13  1  0
 13 14  1  0
 14 15  2  0
 15  5  1  0
 15 16  1  0
 16 17  2  0
 16 18  1  0
 14 19  1  0
 19 20  1  0
 20 21  2  0
 21 22  1  0
 22 23  1  0
 23 24  2  0
 24 20  1  0
 21 25  1  0
 24 26  1  0
 26 27  1  0
 26 28  1  0
 26 29  1  0
 18 30  1  0
 30 31  1  0
 32 31  1  0
 32 33  1  0
 33 18  1  0
 32 34  1  6
 32 35  1  1
M  END
> <Library>
Bioactives

> <Batch>
2012

> <PLATE>
B1002L2012M01

> <WELL>
E13

> <EOS>
EOS100403

> <CCMF_source_vial_barcode>
LV2001695032

> <concentration_mM>
10

> <volume_ul>
30

$$$$
EOS100404
  SciTegic04282016392D

 31 35  0  0  0  0            999 V2000
    0.0773    1.8646    0.0000 N   0  0
    0.0773    1.0396    0.0000 C   0  0
    0.7917    0.6271    0.0000 N   0  0
    1.5062    1.0396    0.0000 C   0  0
    1.5062    1.8646    0.0000 C   0  0
    0.7917    2.2771    0.0000 C   0  0
    2.2908    0.7846    0.0000 N   0  0
    2.7757    1.4521    0.0000 C   0  0
    2.2908    2.1195    0.0000 C   0  0
    0.7917    3.1021    0.0000 N   0  0
    2.5457    0.0000    0.0000 C   0  0
    2.5457    2.9041    0.0000 C   0  0
    3.3527    3.0757    0.0000 C   0  0
    3.6077    3.8603    0.0000 C   0  0
    3.0556    4.4734    0.0000 C   0  0
    2.2487    4.3018    0.0000 C   0  0
    1.9937    3.5172    0.0000 C   0  0
    3.9047    2.4626    0.0000 F   0  0
    4.3613    4.1958    0.0000 C   0  0
    4.2751    5.0163    0.0000 C   0  0
    3.4681    5.1878    0.0000 N   0  0
    3.1326    5.9415    0.0000 C   0  0
    3.6175    6.6090    0.0000 O   0  0
    2.3121    6.0278    0.0000 C   0  0
    1.9765    6.7814    0.0000 C   0  0
    2.4614    7.4489    0.0000 C   0  0
    2.1259    8.2026    0.0000 C   0  0
    1.3054    8.2888    0.0000 C   0  0
    0.8205    7.6214    0.0000 C   0  0
    1.1561    6.8677    0.0000 N   0  0
    0.0000    7.7076    0.0000 C   0  0
  1  2  2  0
  2  3  1  0
  3  4  2  0
  4  5  1  0
  5  6  2  0
  6  1  1  0
  4  7  1  0
  7  8  1  0
  8  9  2  0
  9  5  1  0
  6 10  1  0
  7 11  1  0
  9 12  1  0
 12 13  2  0
 13 14  1  0
 14 15  2  0
 15 16  1  0
 16 17  2  0
 17 12  1  0
 13 18  1  0
 14 19  1  0
 19 20  1  0
 20 21  1  0
 21 15  1  0
 21 22  1  0
 22 23  2  0
 22 24  1  0
 24 25  1  0
 25 26  2  0
 26 27  1  0
 27 28  2  0
 28 29  1  0
 29 30  2  0
 30 25  1  0
 29 31  1  0
M  END
> <Library>
Bioactives

> <Batch>
2012

> <PLATE>
B1002L2012M01

> <WELL>
G13

> <EOS>
EOS100404

> <CCMF_source_vial_barcode>
LV2001696268

> <concentration_mM>
10

> <volume_ul>
30

$$$$
EOS100405
  SciTegic04282016392D

 32 34  0  0  0  0            999 V2000
    7.1472   -1.4663    0.0000 O   0  0
    7.8616   -1.0538    0.0000 C   0  0
    7.8616   -0.2288    0.0000 O   0  0
    8.5761   -1.4663    0.0000 C   0  0
    9.2906   -1.0538    0.0000 C   0  0
   10.0050   -1.4663    0.0000 S   0  0
   10.7195   -1.0538    0.0000 C   0  0
   11.4340   -1.4663    0.0000 C   0  0
   12.1485   -1.0538    0.0000 C   0  0
   12.8629   -1.4663    0.0000 C   0  0
   12.8629   -2.2913    0.0000 C   0  0
   12.1485   -2.7038    0.0000 C   0  0
   11.4340   -2.2913    0.0000 C   0  0
   13.5774   -2.7038    0.0000 C   0  0
   14.3311   -2.3683    0.0000 O   0  0
   14.8831   -2.9814    0.0000 N   0  0
   14.4706   -3.6959    0.0000 C   0  0
   14.8062   -4.4495    0.0000 C   0  0
   13.6636   -3.5243    0.0000 C   0  0
   13.0505   -4.0764    0.0000 N   0  0
   13.2221   -4.8833    0.0000 C   0  0
   14.0067   -5.1383    0.0000 O   0  0
   12.6090   -5.4354    0.0000 O   0  0
   12.7805   -6.2423    0.0000 C   0  0
   13.5651   -6.4973    0.0000 C   0  0
   12.1674   -6.7944    0.0000 C   0  0
   12.3389   -7.6013    0.0000 C   0  0
   11.7258   -8.1534    0.0000 C   0  0
   10.9412   -7.8984    0.0000 C   0  0
   10.7697   -7.0915    0.0000 C   0  0
   11.3828   -6.5394    0.0000 C   0  0
   11.2113   -5.7325    0.0000 Cl  0  0
  1  2  1  0
  2  3  2  0
  2  4  1  0
  4  5  1  0
  5  6  1  0
  6  7  1  0
  7  8  1  0
  8  9  2  0
  9 10  1  0
 10 11  2  0
 11 12  1  0
 12 13  2  0
  8 13  1  0
 11 14  1  0
 14 15  1  0
 15 16  1  0
 16 17  2  0
 17 18  1  0
 17 19  1  0
 14 19  2  0
 19 20  1  0
 20 21  1  0
 21 22  2  0
 21 23  1  0
 23 24  1  0
 24 25  1  0
 24 26  1  0
 26 27  2  0
 27 28  1  0
 28 29  2  0
 29 30  1  0
 30 31  2  0
 26 31  1  0
 31 32  1  0
M  END
> <Library>
Bioactives

> <Batch>
2012

> <PLATE>
B1002L2012M01

> <WELL>
I13

> <EOS>
EOS100405

> <CCMF_source_vial_barcode>
LV2001695117

> <concentration_mM>
10

> <volume_ul>
30

$$$$
EOS100406
  SciTegic04282016392D

 19 21  0  0  0  0            999 V2000
    2.8212   -1.6334    0.0000 C   0  0
    2.8212   -0.8084    0.0000 O   0  0
    2.1068   -2.0459    0.0000 C   0  0
    2.1068   -2.8709    0.0000 C   0  0
    1.3923   -3.2834    0.0000 C   0  0
    0.6778   -2.8709    0.0000 C   0  0
    0.6778   -2.0459    0.0000 C   0  0
    1.3923   -1.6334    0.0000 C   0  0
    3.6219   -2.8664    0.0000 N   0  0
    3.5357   -2.0459    0.0000 C   0  0
    4.2894   -1.7104    0.0000 C   0  0
    4.8414   -2.3235    0.0000 C   0  0
    5.6664   -2.3235    0.0000 C   0  0
    6.0789   -3.0380    0.0000 C   0  0
    5.6664   -3.7524    0.0000 C   0  0
    4.8414   -3.7524    0.0000 C   0  0
    4.4289   -3.0380    0.0000 C   0  0
    6.9039   -3.0380    0.0000 O   0  0
    7.3164   -3.7524    0.0000 C   0  0
  1  2  2  0
  3  4  2  0
  4  5  1  0
  5  6  2  0
  6  7  1  0
  7  8  2  0
  3  8  1  0
  1  3  1  0
  9 10  1  0
 10 11  2  0
 11 12  1  0
 12 13  2  0
 13 14  1  0
 14 15  2  0
 15 16  1  0
 16 17  2  0
  9 17  1  0
 12 17  1  0
 18 19  1  0
 14 18  1  0
  1 10  1  0
M  END
> <Library>
Bioactives

> <Batch>
2012

> <PLATE>
B1002L2012M01

> <WELL>
K13

> <EOS>
EOS100406

> <CCMF_source_vial_barcode>
LV2001696249

> <concentration_mM>
10

> <volume_ul>
30

$$$$
EOS100407
  SciTegic04282016392D

 24 27  0  0  1  0            999 V2000
    0.0168    1.2370    0.0000 C   0  0
    0.0168    0.4095    0.0000 C   0  0
    0.7272    0.0000    0.0000 C   0  0
    0.7272    1.6549    0.0000 C   0  0
    1.4418    1.2370    0.0000 C   0  0
    1.4418    0.4138    0.0000 C   0  0
    2.2275    0.1547    0.0000 N   0  0
    2.7123    0.8233    0.0000 C   0  0
    2.2275    1.4962    0.0000 N   0  0
    3.5356    0.8233    0.0000 C   0  0
    3.9451    0.1086    0.0000 C   0  0
    4.7643    0.1086    0.0000 C   0  0
    5.1780    0.8192    0.0000 C   0  0
    4.7685    1.5379    0.0000 C   0  0
    3.9410    1.5379    0.0000 C   0  0
    3.5230    2.2568    0.0000 F   0  0
    6.0013    0.8192    0.0000 C   0  0  1  0  0  0
    6.4861    0.1463    0.0000 N   0  0
    7.2760    0.4012    0.0000 C   0  0
    7.2760    1.2287    0.0000 C   0  0
    6.4903    1.4837    0.0000 C   0  0
    0.7272    2.4825    0.0000 C   0  0
    1.4335    2.9004    0.0000 N   0  0
    0.0000    2.8920    0.0000 O   0  0
  1  4  1  0
  2  3  1  0
  3  6  2  0
  6  7  1  0
 10 15  2  0
 11 12  2  0
 12 13  1  0
 13 14  2  0
 14 15  1  0
  7  8  1  0
 15 16  1  0
 17 18  1  6
  8  9  2  0
  9  5  1  0
  5  4  2  0
  5  6  1  0
 18 19  1  0
 19 20  1  0
 20 21  1  0
 17 21  1  0
 17 13  1  0
  8 10  1  0
  4 22  1  0
 10 11  1  0
 22 23  1  0
  1  2  2  0
 22 24  2  0
M  END
> <Library>
Bioactives

> <Batch>
2012

> <PLATE>
B1002L2012M01

> <WELL>
M13

> <EOS>
EOS100407

> <CCMF_source_vial_barcode>
LV2001695049

> <concentration_mM>
10

> <volume_ul>
30

$$$$
EOS100408
  SciTegic04282016392D

 39 43  0  0  0  0            999 V2000
    4.0374    3.4742    0.0000 N   0  0
    4.0374    2.6492    0.0000 C   0  0
    3.3254    2.2409    0.0000 N   0  0
    3.3254    3.8909    0.0000 C   0  0
    2.6113    2.6474    0.0000 C   0  0
    2.6113    3.4742    0.0000 C   0  0
    1.9656    3.9971    0.0000 N   0  0
    1.9578    2.1317    0.0000 N   0  0
    1.1554    3.8205    0.0000 C   0  0
    1.1479    2.3217    0.0000 C   0  0
    0.7937    3.0741    0.0000 C   0  0
    0.6450    4.4685    0.0000 O   0  0
    2.1373    1.3287    0.0000 C   0  0
    2.8941    1.0004    0.0000 C   0  0
    2.8156    0.1791    0.0000 C   0  0
    2.0102    0.0000    0.0000 C   0  0
    1.5911    0.7106    0.0000 C   0  0
    0.0000    3.2909    0.0000 F   0  0
    0.0000    2.8617    0.0000 F   0  0
    2.1555    4.7999    0.0000 C   0  0
    4.7513    2.2357    0.0000 N   0  0
    5.4662    2.6471    0.0000 C   0  0
    5.4662    3.4711    0.0000 C   0  0
    6.1787    3.8825    0.0000 C   0  0
    6.8935    3.4689    0.0000 C   0  0
    6.8935    2.6397    0.0000 C   0  0
    6.1749    2.2320    0.0000 C   0  0
    7.6091    3.8794    0.0000 C   0  0
    7.6091    4.7044    0.0000 O   0  0
    8.3202    3.4650    0.0000 N   0  0
    6.1749    1.4071    0.0000 O   0  0
    6.8821    0.9904    0.0000 C   0  0
    8.3202    2.6400    0.0000 C   0  0
    9.0364    2.2214    0.0000 C   0  0
    9.0364    1.4000    0.0000 C   0  0
    8.3223    0.9857    0.0000 N   0  0
    7.6071    1.3990    0.0000 C   0  0
    7.6071    2.2266    0.0000 C   0  0
    8.3223    0.1607    0.0000 C   0  0
  7  9  1  0
 11 19  1  0
  6  4  2  0
  7 20  1  0
  8 10  1  0
  2 21  1  0
 21 22  1  0
  9 11  1  0
 22 23  2  0
 10 11  1  0
 23 24  1  0
  1  2  2  0
 24 25  2  0
  9 12  2  0
 25 26  1  0
 13 14  1  0
 26 27  2  0
 27 22  1  0
  5  6  1  0
 25 28  1  0
  1  4  1  0
 28 29  2  0
  6  7  1  0
 28 30  1  0
  2  3  1  0
 27 31  1  0
  5  8  1  0
 31 32  1  0
 14 15  1  0
 30 33  1  0
 33 34  1  0
 15 16  1  0
 16 17  1  0
 17 13  1  0
  8 13  1  0
  3  5  2  0
 33 38  1  0
 34 35  1  0
 35 36  1  0
 36 37  1  0
 37 38  1  0
 11 18  1  0
 36 39  1  0
M  END
> <Library>
Bioactives

> <Batch>
2012

> <PLATE>
B1002L2012M01

> <WELL>
O13

> <EOS>
EOS100408

> <CCMF_source_vial_barcode>
LV2001695052

> <concentration_mM>
10

> <volume_ul>
30

$$$$
EOS100409
  SciTegic04282016392D

 30 33  0  0  0  0            999 V2000
    1.3833   -1.1792    0.0000 N   0  0
    0.9708    0.0917    0.0000 C   0  0
    1.6375   -0.3958    0.0000 C   0  0
    0.5583   -1.1833    0.0000 C   0  0
    0.3000   -0.3958    0.0000 C   0  0
    1.8708   -1.8500    0.0000 C   0  0
    0.9708    0.9167    0.0000 C   0  0
    1.7125    1.3792    0.0000 C   0  0
    2.4917    1.1542    0.0000 N   0  0
    0.0083   -1.8000    0.0000 C   0  0
    2.6875   -1.7625    0.0000 C   0  0
   -0.5042   -0.2292    0.0000 C   0  0
    1.5333   -2.6042    0.0000 O   0  0
    1.6833    2.1542    0.0000 O   0  0
    4.0417    0.6958    0.0000 O   0  0
    3.0208   -1.0083    0.0000 C   0  0
    3.1750   -2.4292    0.0000 C   0  0
    2.4333   -0.2458    0.0000 C   0  0
   -1.0542   -0.8417    0.0000 C   0  0
   -0.8000   -1.6292    0.0000 C   0  0
    4.3292   -1.5917    0.0000 C   0  0
    3.8375   -0.9208    0.0000 C   0  0
    3.9917   -2.3458    0.0000 C   0  0
    5.1500   -1.5000    0.0000 Cl  0  0
    2.6833    0.3667    0.0000 C   0  0
    3.0708    1.7125    0.0000 C   0  0
   -1.8625   -0.6708    0.0000 O   0  0
    3.8500    1.4833    0.0000 C   0  0
    3.4542    0.1417    0.0000 C   0  0
   -2.1167    0.1167    0.0000 C   0  0
  2  3  2  0
  3  1  1  0
  4  1  1  0
  5  4  1  0
  6  1  1  0
  7  2  1  0
  8  7  1  0
  9  8  1  0
 10  4  2  0
 11  6  1  0
 12  5  2  0
 13  6  2  0
 14  8  2  0
 15 28  1  0
 16 11  2  0
 17 11  1  0
 18  3  1  0
 19 20  2  0
 20 10  1  0
 21 22  2  0
 22 16  1  0
 23 17  2  0
 24 21  1  0
 25  9  1  0
 26  9  1  0
 27 19  1  0
 28 26  1  0
 29 25  1  0
 30 27  1  0
  5  2  1  0
 21 23  1  0
 19 12  1  0
 15 29  1  0
M  END
> <Library>
Bioactives

> <Batch>
2012

> <PLATE>
B1002L2012M01

> <WELL>
A15

> <EOS>
EOS100409

> <CCMF_source_vial_barcode>
LV2001696267

> <concentration_mM>
10

> <volume_ul>
30

$$$$
EOS100410
  SciTegic04282016392D

 37 41  0  0  0  0            999 V2000
    3.2949    6.2130    0.0000 C   0  0
    3.7061    5.5007    0.0000 C   0  0
    4.5286    5.5007    0.0000 C   0  0
    4.9399    6.2130    0.0000 C   0  0
    4.5286    6.9252    0.0000 C   0  0
    3.7061    6.9252    0.0000 C   0  0
    2.4725    6.2130    0.0000 N   0  0
    2.0800    6.9390    0.0000 C   0  0
    1.2550    6.9390    0.0000 C   0  0
    0.8225    6.2130    0.0000 N   0  0
    1.2550    5.4869    0.0000 C   0  0
    2.0800    5.4869    0.0000 C   0  0
    0.0000    6.2130    0.0000 C   0  0
    5.7623    6.2130    0.0000 C   0  0
    6.1735    6.9252    0.0000 O   0  0
    6.1735    5.5007    0.0000 N   0  0
    6.9960    5.5007    0.0000 C   0  0
    7.4811    4.8330    0.0000 C   0  0
    8.2660    5.0880    0.0000 C   0  0
    8.2660    5.9134    0.0000 N   0  0
    7.4811    6.1684    0.0000 N   0  0
    7.4811    4.0077    0.0000 C   0  0
    8.2660    3.7526    0.0000 N   0  0
    8.7511    4.4203    0.0000 C   0  0
    8.5202    2.9704    0.0000 C   0  0
    9.3146    2.7576    0.0000 O   0  0
    7.9386    2.3888    0.0000 N   0  0
    8.1515    1.5944    0.0000 C   0  0
    7.5679    1.0108    0.0000 C   0  0
    7.7815    0.2136    0.0000 C   0  0
    8.5787    0.0000    0.0000 C   0  0
    9.1623    0.5836    0.0000 C   0  0
    8.9487    1.3808    0.0000 C   0  0
    6.7735    1.2237    0.0000 C   0  0
    9.5303    1.9624    0.0000 C   0  0
   10.3247    1.7495    0.0000 C   0  0
    6.1919    0.6421    0.0000 C   0  0
  1  2  2  0
  2  3  1  0
  3  4  2  0
  4  5  1  0
  5  6  2  0
  6  1  1  0
  1  7  1  0
  7  8  1  0
  8  9  1  0
  9 10  1  0
 10 11  1  0
 11 12  1  0
 12  7  1  0
 10 13  1  0
  4 14  1  0
 14 15  2  0
 14 16  1  0
 16 17  1  0
 17 18  1  0
 18 19  2  0
 19 20  1  0
 20 21  1  0
 21 17  2  0
 18 22  1  0
 22 23  1  0
 23 24  1  0
 24 19  1  0
 23 25  1  0
 25 26  2  0
 25 27  1  0
 27 28  1  0
 28 29  2  0
 29 30  1  0
 30 31  2  0
 31 32  1  0
 32 33  2  0
 33 28  1  0
 29 34  1  0
 33 35  1  0
 35 36  1  0
 34 37  1  0
M  END
> <Library>
Bioactives

> <Batch>
2012

> <PLATE>
B1002L2012M01

> <WELL>
C15

> <EOS>
EOS100410

> <CCMF_source_vial_barcode>
LV2001696251

> <concentration_mM>
10

> <volume_ul>
30

$$$$
EOS100411
  SciTegic04282016392D

 42 45  0  0  0  0            999 V2000
    0.0000    2.4750    0.0000 C   0  0
    0.0000    1.6500    0.0000 C   0  0
    0.7145    1.2375    0.0000 C   0  0
    1.4290    1.6500    0.0000 C   0  0
    1.4290    2.4750    0.0000 C   0  0
    0.7145    2.8875    0.0000 C   0  0
    2.1434    2.8875    0.0000 C   0  0
    2.8579    2.4750    0.0000 C   0  0
    3.5724    2.8875    0.0000 C   0  0
    3.5724    3.7125    0.0000 C   0  0
    2.8579    4.1250    0.0000 C   0  0
    2.1434    3.7125    0.0000 C   0  0
    4.2868    4.1250    0.0000 C   0  0
    5.0013    3.7125    0.0000 N   0  0
    5.7158    4.1250    0.0000 C   0  0
    7.8592    3.7125    0.0000 S   0  0
    8.5736    3.3000    0.0000 C   0  0
    5.7158    4.9500    0.0000 O   0  0
    5.0013    2.8875    0.0000 C   0  0
    4.2868    2.4750    0.0000 C   0  0
    4.2868    1.6500    0.0000 C   0  0
    5.0013    1.2375    0.0000 C   0  0
    5.7158    1.6500    0.0000 C   0  0
    5.7158    2.4750    0.0000 C   0  0
    5.0013    0.4125    0.0000 C   0  0
    5.7158    0.0000    0.0000 O   0  0
    4.2868    0.0000    0.0000 O   0  0
    7.4467    2.9981    0.0000 O   0  0
    8.2717    4.4270    0.0000 O   0  0
    8.5736    2.4750    0.0000 C   0  0
    9.2881    2.0625    0.0000 C   0  0
   10.0026    2.4750    0.0000 C   0  0
   10.0026    3.3000    0.0000 C   0  0
    9.2881    3.7125    0.0000 C   0  0
   10.7170    3.7125    0.0000 F   0  0
    9.2881    4.5375    0.0000 F   0  0
   10.7170    2.0625    0.0000 F   0  0
    9.2881    1.2375    0.0000 F   0  0
    7.8592    2.0625    0.0000 F   0  0
    6.4302    3.7125    0.0000 C   0  0
    7.1447    4.1250    0.0000 N   0  0
    7.1447    4.9500    0.0000 C   0  0
  1  2  1  0
  2  3  1  0
  3  4  1  0
  4  5  1  0
  5  6  1  0
  6  1  1  0
  5  7  1  0
  7  8  2  0
  8  9  1  0
  9 10  2  0
 10 11  1  0
 11 12  2  0
 12  7  1  0
 10 13  1  0
 13 14  1  0
 14 15  1  0
 16 17  1  0
 15 18  2  0
 14 19  1  0
 19 20  2  0
 20 21  1  0
 21 22  2  0
 22 23  1  0
 23 24  2  0
 24 19  1  0
 22 25  1  0
 25 26  1  0
 25 27  2  0
 16 28  2  0
 16 29  2  0
 17 30  2  0
 30 31  1  0
 31 32  2  0
 32 33  1  0
 33 34  2  0
 34 17  1  0
 33 35  1  0
 34 36  1  0
 32 37  1  0
 31 38  1  0
 30 39  1  0
 15 40  1  0
 40 41  1  0
 41 16  1  0
 41 42  1  0
M  END
> <Library>
Bioactives

> <Batch>
2012

> <PLATE>
B1002L2012M01

> <WELL>
E15

> <EOS>
EOS100411

> <CCMF_source_vial_barcode>
LV2001695593

> <concentration_mM>
10

> <volume_ul>
30

$$$$
EOS100412
  SciTegic04282016392D

 26 28  0  0  0  0            999 V2000
    3.1664   -1.9575    0.0000 N   0  0
    2.6815   -1.2900    0.0000 C   0  0
    3.0171   -0.5364    0.0000 C   0  0
    3.8375   -0.4501    0.0000 C   0  0
    4.3225   -1.1176    0.0000 C   0  0
    3.9869   -1.8712    0.0000 C   0  0
    1.8610   -1.3763    0.0000 C   0  0
    1.3761   -0.7088    0.0000 O   0  0
    0.5556   -0.7951    0.0000 C   0  0  2  0  0  0
    0.0036   -0.1820    0.0000 C   0  0
   -0.7501   -0.5175    0.0000 N   0  0
   -0.6639   -1.3380    0.0000 C   0  0
    0.1431   -1.5095    0.0000 C   0  0
   -1.4646   -0.1050    0.0000 C   0  0
   -1.4646    0.7200    0.0000 C   0  0
   -0.7501    1.1325    0.0000 C   0  0
   -0.7501    1.9575    0.0000 O   0  0
   -0.0356    0.7200    0.0000 O   0  0
   -2.1790    1.1325    0.0000 C   0  0
   -2.8935    0.7200    0.0000 C   0  0
   -2.8935   -0.1050    0.0000 C   0  0
   -2.1790   -0.5175    0.0000 C   0  0
   -3.6080    1.1325    0.0000 C   0  0
   -3.6080    1.9575    0.0000 F   0  0
   -4.3225    1.5450    0.0000 F   0  0
   -4.3225    0.7200    0.0000 F   0  0
  1  2  2  0
  2  3  1  0
  3  4  2  0
  4  5  1  0
  5  6  2  0
  1  6  1  0
  2  7  1  0
  7  8  1  0
  9  8  1  1
  9 10  1  0
 10 11  1  0
 11 12  1  0
 12 13  1  0
  9 13  1  0
 11 14  1  0
 14 15  2  0
 15 16  1  0
 16 17  2  0
 16 18  1  0
 15 19  1  0
 19 20  2  0
 20 21  1  0
 21 22  2  0
 14 22  1  0
 20 23  1  0
 23 24  1  0
 23 25  1  0
 23 26  1  0
M  END
> <Library>
Bioactives

> <Batch>
2012

> <PLATE>
B1002L2012M01

> <WELL>
G15

> <EOS>
EOS100412

> <CCMF_source_vial_barcode>
LV2001696279

> <concentration_mM>
10

> <volume_ul>
30

$$$$
EOS100413
  SciTegic04282016392D

 26 28  0  0  0  0            999 V2000
    2.1434    2.4750    0.0000 C   0  0
    2.1434    1.6500    0.0000 C   0  0
    2.8579    1.2375    0.0000 C   0  0
    3.5724    1.6500    0.0000 C   0  0
    3.5724    2.4750    0.0000 C   0  0
    2.8579    2.8875    0.0000 C   0  0
    1.4290    1.2375    0.0000 C   0  0
    0.7144    1.6500    0.0000 S   0  0
    0.0000    1.2375    0.0000 N   0  0
    4.2868    1.2375    0.0000 N   0  0
    5.0013    1.6500    0.0000 C   0  0
    5.7158    1.2375    0.0000 C   0  0
    6.4302    1.6500    0.0000 C   0  0
    6.4302    2.4750    0.0000 N   0  0
    5.7158    2.8875    0.0000 C   0  0
    5.0013    2.4750    0.0000 N   0  0
    7.1447    1.2375    0.0000 C   0  0
    7.1447    0.4125    0.0000 C   0  0
    7.8592    0.0000    0.0000 C   0  0
    8.5736    0.4125    0.0000 C   0  0
    8.5736    1.2375    0.0000 C   0  0
    7.8592    1.6500    0.0000 C   0  0
    7.8592    2.4750    0.0000 O   0  0
    8.5736    2.8875    0.0000 C   0  0
    0.7144    2.4750    0.0000 O   0  0
    0.7144    0.8250    0.0000 O   0  0
  1  2  2  0
  2  3  1  0
  3  4  2  0
  4  5  1  0
  5  6  2  0
  6  1  1  0
  2  7  1  0
  7  8  1  0
  8  9  1  0
  4 10  1  0
 10 11  1  0
 11 12  2  0
 12 13  1  0
 13 14  2  0
 14 15  1  0
 15 16  2  0
 16 11  1  0
 13 17  1  0
 17 18  2  0
 18 19  1  0
 19 20  2  0
 20 21  1  0
 21 22  2  0
 22 17  1  0
 22 23  1  0
 23 24  1  0
  8 25  2  0
  8 26  2  0
M  END
> <Library>
Bioactives

> <Batch>
2012

> <PLATE>
B1002L2012M01

> <WELL>
I15

> <EOS>
EOS100413

> <CCMF_source_vial_barcode>
LV2001696280

> <concentration_mM>
10

> <volume_ul>
30

$$$$
EOS100414
  SciTegic04282016392D

 34 37  0  0  0  0            999 V2000
    3.5724    2.2295    0.0000 N   0  0
    3.5724    1.4045    0.0000 C   0  0
    4.2868    0.9920    0.0000 N   0  0
    5.0013    1.4045    0.0000 C   0  0
    5.0013    2.2295    0.0000 C   0  0
    4.2868    2.6420    0.0000 C   0  0
    2.8579    0.9920    0.0000 N   0  0
    2.1434    1.4045    0.0000 C   0  0
    1.4290    0.9920    0.0000 C   0  0
    0.7145    1.4045    0.0000 C   0  0
    0.0000    0.9920    0.0000 C   0  0
    4.2868    3.4670    0.0000 N   0  0
    3.5724    3.8795    0.0000 C   0  0  2  0  0  0
    3.5724    4.7045    0.0000 C   0  0
    2.8579    5.1170    0.0000 C   0  0
    2.1434    4.7045    0.0000 C   0  0  2  0  0  0
    2.1434    3.8795    0.0000 C   0  0
    2.8579    3.4670    0.0000 C   0  0
    1.4290    5.1170    0.0000 O   0  0
    5.7158    2.6420    0.0000 C   0  0
    6.4302    2.2295    0.0000 N   0  0
    7.1447    2.6420    0.0000 C   0  0
    7.8592    2.2295    0.0000 C   0  0
    5.7158    3.4670    0.0000 O   0  0
    7.8592    1.4045    0.0000 C   0  0
    8.5736    0.9920    0.0000 C   0  0
    9.2881    1.4045    0.0000 C   0  0
    9.2881    2.2295    0.0000 C   0  0
    8.5736    2.6420    0.0000 C   0  0
   10.0026    0.9920    0.0000 N   0  0
   10.0888    0.1715    0.0000 C   0  0
   10.8958    0.0000    0.0000 N   0  0
   11.3083    0.7145    0.0000 C   0  0
   10.7563    1.3275    0.0000 C   0  0
  1  2  2  0
  2  3  1  0
  3  4  2  0
  4  5  1  0
  5  6  2  0
  6  1  1  0
  2  7  1  0
  7  8  1  0
  8  9  1  0
  9 10  1  0
 10 11  1  0
  6 12  1  0
 13 12  1  1
 13 14  1  0
 14 15  1  0
 16 15  1  0
 16 17  1  0
 17 18  1  0
 13 18  1  0
 16 19  1  6
  5 20  1  0
 20 21  1  0
 21 22  1  0
 22 23  1  0
 20 24  2  0
 23 25  2  0
 25 26  1  0
 26 27  2  0
 27 28  1  0
 28 29  2  0
 29 23  1  0
 27 30  1  0
 30 31  1  0
 31 32  2  0
 32 33  1  0
 33 34  2  0
 34 30  1  0
M  END
> <Library>
Bioactives

> <Batch>
2012

> <PLATE>
B1002L2012M01

> <WELL>
K15

> <EOS>
EOS100414

> <CCMF_source_vial_barcode>
LV2001696219

> <concentration_mM>
10

> <volume_ul>
30

$$$$
EOS100415
  SciTegic04282016392D

 28 30  0  0  0  0            999 V2000
    2.1360    2.0597    0.0000 N   0  0
    2.1360    1.2346    0.0000 C   0  0
    2.8505    0.8221    0.0000 N   0  0
    3.5650    1.2346    0.0000 C   0  0
    3.5650    2.0597    0.0000 C   0  0
    2.8505    2.4722    0.0000 C   0  0
    4.2795    0.8221    0.0000 N   0  0
    4.9940    1.2346    0.0000 C   0  0
    4.9940    2.0597    0.0000 C   0  0
    4.2795    2.4722    0.0000 C   0  0
    2.8505    3.2944    0.0000 O   0  0
    1.4240    2.4708    0.0000 C   0  0
    0.7120    2.0597    0.0000 C   0  0  1  0  0  0
    0.0000    2.4708    0.0000 O   0  0
    0.7120    1.2375    0.0000 C   0  0
    0.0000    0.8264    0.0000 O   0  0
    5.7059    0.8236    0.0000 O   0  0
    4.2795    0.0000    0.0000 C   0  0
    4.2795    3.2944    0.0000 N   0  0
    4.9915    3.7055    0.0000 C   0  0
    5.7059    2.4708    0.0000 F   0  0
    5.7059    3.2929    0.0000 C   0  0
    6.4205    3.7055    0.0000 C   0  0
    6.4205    4.5305    0.0000 C   0  0
    5.7059    4.9430    0.0000 C   0  0
    4.9915    4.5305    0.0000 C   0  0
    4.2795    4.9415    0.0000 F   0  0
    7.1325    4.9415    0.0000 I   0  0
  1  2  1  0
  2  3  2  0
  3  4  1  0
  4  5  2  0
  5  6  1  0
  6  1  1  0
  4  7  1  0
  7  8  1  0
  8  9  1  0
  9 10  2  0
 10  5  1  0
  6 11  2  0
  1 12  1  0
 13 12  1  0
 13 14  1  6
 13 15  1  0
 15 16  1  0
  8 17  2  0
  7 18  1  0
 10 19  1  0
 19 20  1  0
  9 21  1  0
 20 22  2  0
 22 23  1  0
 23 24  2  0
 24 25  1  0
 25 26  2  0
 26 20  1  0
 26 27  1  0
 24 28  1  0
M  END
> <Library>
Bioactives

> <Batch>
2012

> <PLATE>
B1002L2012M01

> <WELL>
M15

> <EOS>
EOS100415

> <CCMF_source_vial_barcode>
LV2001696295

> <concentration_mM>
10

> <volume_ul>
30

$$$$
EOS100416
  SciTegic04282016392D

 30 34  0  0  0  0            999 V2000
    4.7547    0.3604    0.0000 O   0  0
    4.5145    1.1497    0.0000 C   0  0
    5.0779    1.7523    0.0000 C   0  0
    4.8378    2.5416    0.0000 C   0  0
    5.4012    3.1442    0.0000 C   0  0
    6.2048    2.9575    0.0000 C   0  0
    6.8812    3.4299    0.0000 N   0  0
    7.5395    2.9325    0.0000 C   0  0
    8.3287    3.1727    0.0000 C   0  0
    7.2698    2.1528    0.0000 N   0  0
    6.4450    2.1683    0.0000 C   0  0
    5.8815    1.5657    0.0000 C   0  0
    3.7109    1.3363    0.0000 N   0  0
    3.1474    0.7337    0.0000 C   0  0
    2.3438    0.9203    0.0000 C   0  0
    2.1037    1.7096    0.0000 C   0  0
    1.5402    1.1070    0.0000 C   0  0
    0.7366    1.2936    0.0000 C   0  0
    0.0602    0.8213    0.0000 C   0  0
   -0.5980    1.3186    0.0000 N   0  0
   -0.3284    2.0983    0.0000 N   0  0
   -0.8007    2.7748    0.0000 C   0  0
   -1.6227    2.7039    0.0000 C   0  0
   -0.4511    3.5220    0.0000 C   0  0
    0.4964    2.0829    0.0000 C   0  0
    1.0599    2.6855    0.0000 C   0  0
    1.8635    2.4988    0.0000 C   0  0
    0.8197    3.4748    0.0000 O   0  0
    2.6671    2.3122    0.0000 C   0  0
    3.4707    2.1256    0.0000 C   0  0
  1  2  2  0
  2  3  1  0
  3  4  2  0
  4  5  1  0
  5  6  2  0
  6  7  1  0
  7  8  2  0
  8  9  1  0
  8 10  1  0
  6 11  1  0
 10 11  1  0
 11 12  2  0
  3 12  1  0
  2 13  1  0
 13 14  1  0
 14 15  1  0
 15 16  1  0
 16 17  1  0
 17 18  1  0
 18 19  1  0
 19 20  2  0
 20 21  1  0
 21 22  1  0
 22 23  1  0
 22 24  1  0
 18 25  2  0
 21 25  1  0
 25 26  1  0
 26 27  1  0
 26 28  2  0
 27 16  1  0
 16 29  1  0
 29 30  1  0
 13 30  1  0
M  END
> <Library>
Bioactives

> <Batch>
2012

> <PLATE>
B1002L2012M01

> <WELL>
O15

> <EOS>
EOS100416

> <CCMF_source_vial_barcode>
LV2001695608

> <concentration_mM>
10

> <volume_ul>
30

$$$$
EOS100417
  SciTegic04282016392D

 35 39  0  0  0  0            999 V2000
    1.7889    4.3698    0.0000 O   0  0
    1.5340    3.5851    0.0000 C   0  0  1  0  0  0
    2.0860    2.9720    0.0000 C   0  0
    1.8310    2.1874    0.0000 C   0  0
    1.0241    2.0159    0.0000 C   0  0  2  0  0  0
    0.7691    1.2313    0.0000 N   0  0
    1.2541    0.5638    0.0000 C   0  0
    0.7691   -0.1036    0.0000 C   0  0
    1.0241   -0.8882    0.0000 C   0  0
    1.8310   -1.0597    0.0000 C   0  0
    2.0860   -1.8444    0.0000 C   0  0
    1.5340   -2.4575    0.0000 C   0  0
    1.7889   -3.2421    0.0000 C   0  0
    2.5959   -3.4136    0.0000 N   0  0
    3.1479   -2.8005    0.0000 C   0  0
    3.9549   -2.9720    0.0000 C   0  0
    4.2098   -3.7567    0.0000 N   0  0
    5.0168   -3.9282    0.0000 C   0  0
    3.6578   -4.3698    0.0000 C   0  0
    2.8508   -4.1982    0.0000 C   0  0
    0.7270   -2.2859    0.0000 C   0  0
    0.4720   -1.5013    0.0000 C   0  0
   -0.0155    0.1513    0.0000 C   0  0
   -0.7300   -0.2612    0.0000 C   0  0
   -1.4444    0.1513    0.0000 N   0  0
   -1.4444    0.9763    0.0000 C   0  0
   -2.1589    1.3888    0.0000 N   0  0
   -2.8734    0.9763    0.0000 C   0  0
   -3.5878    1.3888    0.0000 C   0  0
   -4.3023    0.9763    0.0000 C   0  0
   -5.0168    1.3888    0.0000 C   0  0
   -0.7300    1.3888    0.0000 N   0  0
   -0.0155    0.9763    0.0000 C   0  0
    0.4720    2.6290    0.0000 C   0  0
    0.7270    3.4136    0.0000 C   0  0
  2  1  1  1
  2  3  1  0
  3  4  1  0
  5  4  1  0
  5  6  1  6
  6  7  1  0
  7  8  2  0
  8  9  1  0
  9 10  2  0
 10 11  1  0
 11 12  2  0
 12 13  1  0
 13 14  1  0
 14 15  1  0
 15 16  1  0
 16 17  1  0
 17 18  1  0
 17 19  1  0
 19 20  1  0
 14 20  1  0
 12 21  1  0
 21 22  2  0
  9 22  1  0
  8 23  1  0
 23 24  2  0
 24 25  1  0
 25 26  2  0
 26 27  1  0
 27 28  1  0
 28 29  1  0
 29 30  1  0
 30 31  1  0
 26 32  1  0
 32 33  2  0
 23 33  1  0
  6 33  1  0
  5 34  1  0
 34 35  1  0
  2 35  1  0
M  END
> <Library>
Bioactives

> <Batch>
2012

> <PLATE>
B1002L2012M01

> <WELL>
A17

> <EOS>
EOS100417

> <CCMF_source_vial_barcode>
LV2001695092

> <concentration_mM>
10

> <volume_ul>
30

$$$$
EOS100418
  SciTegic04282016392D

 35 39  0  0  0  0            999 V2000
    8.8716   -4.0765    0.0000 N   0  0
    8.2269   -3.5619    0.0000 C   0  0
    8.2273   -2.7369    0.0000 C   0  0
    8.8725   -2.2228    0.0000 N   0  0
    9.6768   -2.4067    0.0000 C   0  0
   10.0343   -3.1502    0.0000 C   0  0
    9.6761   -3.8934    0.0000 C   0  0
    6.7979   -3.5612    0.0000 C   0  0
    7.5122   -3.9740    0.0000 N   0  0
    7.5130   -2.3240    0.0000 C   0  0
    6.7983   -2.7362    0.0000 N   0  0
   10.1914   -1.7620    0.0000 O   0  0
    8.6893   -1.4184    0.0000 C   0  0
    6.0833   -3.9733    0.0000 N   0  0
    5.3690   -3.5605    0.0000 C   0  0
    5.3694   -2.7355    0.0000 C   0  0
    4.6552   -2.3226    0.0000 C   0  0
    3.9404   -2.7348    0.0000 C   0  0
    3.9401   -3.5598    0.0000 C   0  0
    4.6543   -3.9726    0.0000 C   0  0
    3.2262   -2.3219    0.0000 N   0  0
    3.2266   -1.4969    0.0000 C   0  0
    2.5123   -1.0841    0.0000 C   0  0
    1.7977   -1.4962    0.0000 C   0  0
    1.7972   -2.3212    0.0000 C   0  0
    2.5115   -2.7341    0.0000 C   0  0
    1.0834   -1.0834    0.0000 O   0  0
    6.0841   -2.3233    0.0000 O   0  0
    6.0845   -1.4983    0.0000 C   0  0
    6.7992   -1.0862    0.0000 C   0  0
    8.6877   -4.8808    0.0000 C   0  0
    9.2249   -5.4992    0.0000 C   0  0
    8.8120   -6.2134    0.0000 C   0  0
    8.0025   -6.0263    0.0000 C   0  0
    7.9289   -5.2046    0.0000 C   0  0
  1  2  1  0
  2  3  2  0
  3  4  1  0
  4  5  1  0
  5  6  1  0
  6  7  1  0
  1  7  1  0
  8  9  2  0
 10 11  2  0
  8 11  1  0
  2  9  1  0
  3 10  1  0
  5 12  2  0
  4 13  1  0
 15 16  2  0
 16 17  1  0
 17 18  2  0
 18 19  1  0
 19 20  2  0
 15 20  1  0
 21 22  1  0
 22 23  1  0
 23 24  1  0
 24 25  1  0
 25 26  1  0
 21 26  1  0
 24 27  1  0
 18 21  1  0
 29 30  1  0
 28 29  1  0
 16 28  1  0
 14 15  1  0
  8 14  1  0
 31 32  1  0
 32 33  1  0
 33 34  1  0
 34 35  1  0
 31 35  1  0
  1 31  1  0
M  END
> <Library>
Bioactives

> <Batch>
2012

> <PLATE>
B1002L2012M01

> <WELL>
C17

> <EOS>
EOS100418

> <CCMF_source_vial_barcode>
LV2001696273

> <concentration_mM>
10

> <volume_ul>
30

$$$$
EOS100419
  SciTegic04282016392D

 48 53  0  0  0  0            999 V2000
   -1.4289   -4.7437    0.0000 O   0  0
   -1.4289   -3.9187    0.0000 C   0  0
   -2.1434   -3.5062    0.0000 C   0  0
   -2.8579   -3.9187    0.0000 C   0  0
   -3.5724   -3.5062    0.0000 C   0  0
   -4.2868   -3.9187    0.0000 C   0  0
   -5.0013   -3.5062    0.0000 C   0  0
   -5.0013   -2.6812    0.0000 C   0  0
   -4.2868   -2.2687    0.0000 C   0  0
   -3.5724   -2.6812    0.0000 C   0  0
   -2.8579   -2.2688    0.0000 N   0  0
   -2.1434   -2.6813    0.0000 C   0  0
   -0.7145   -3.5062    0.0000 N   0  0
    0.0000   -3.9187    0.0000 C   0  0
    0.0000   -4.7437    0.0000 C   0  0
    0.7145   -5.1562    0.0000 C   0  0
    0.7145   -5.9812    0.0000 O   0  0
    1.4289   -6.3937    0.0000 C   0  0
    1.4289   -4.7437    0.0000 C   0  0
    2.1434   -5.1562    0.0000 O   0  0
    2.8579   -4.7437    0.0000 C   0  0
    1.4289   -3.9187    0.0000 C   0  0
    0.7145   -3.5062    0.0000 C   0  0
    0.7145   -2.6813    0.0000 C   0  0
    1.4289   -2.2688    0.0000 N   0  0
    1.4289   -1.4438    0.0000 C   0  0
    0.7145   -1.0313    0.0000 C   0  0
    0.7145   -0.2063    0.0000 C   0  0
    1.4289    0.2062    0.0000 C   0  0
    1.4289    1.0312    0.0000 C   0  0
    2.1434    1.4437    0.0000 C   0  0
    2.1434    2.2687    0.0000 N   0  0
    2.8579    2.6812    0.0000 C   0  0
    2.8579    3.5062    0.0000 C   0  0
    2.1434    3.9187    0.0000 C   0  0
    2.1434    4.7437    0.0000 C   0  0
    2.8579    5.1562    0.0000 C   0  0
    2.8579    5.9812    0.0000 O   0  0
    3.5724    6.3937    0.0000 C   0  0
    3.5724    4.7437    0.0000 C   0  0
    4.2868    5.1562    0.0000 O   0  0
    5.0013    4.7437    0.0000 C   0  0
    3.5724    3.9187    0.0000 C   0  0
    1.4289    3.5062    0.0000 C   0  0
    1.4289    2.6812    0.0000 C   0  0
    2.1434   -0.2063    0.0000 C   0  0
    2.1434   -1.0313    0.0000 C   0  0
    0.0000   -2.2688    0.0000 O   0  0
  1  2  2  0
  2  3  1  0
  3  4  1  0
  4  5  2  0
  5  6  1  0
  6  7  2  0
  7  8  1  0
  8  9  2  0
  9 10  1  0
  5 10  1  0
 10 11  2  0
 11 12  1  0
  3 12  2  0
  2 13  1  0
 13 14  1  0
 14 15  2  0
 15 16  1  0
 16 17  1  0
 17 18  1  0
 16 19  2  0
 19 20  1  0
 20 21  1  0
 19 22  1  0
 22 23  2  0
 14 23  1  0
 23 24  1  0
 24 25  1  0
 25 26  1  0
 26 27  2  0
 27 28  1  0
 28 29  2  0
 29 30  1  0
 30 31  1  0
 31 32  1  0
 32 33  1  0
 33 34  1  0
 34 35  2  0
 35 36  1  0
 36 37  2  0
 37 38  1  0
 38 39  1  0
 37 40  1  0
 40 41  1  0
 41 42  1  0
 40 43  2  0
 34 43  1  0
 35 44  1  0
 44 45  1  0
 32 45  1  0
 29 46  1  0
 46 47  2  0
 26 47  1  0
 24 48  2  0
M  END
> <Library>
Bioactives

> <Batch>
2012

> <PLATE>
B1002L2012M01

> <WELL>
E17

> <EOS>
EOS100419

> <CCMF_source_vial_barcode>
LV2001695104

> <concentration_mM>
10

> <volume_ul>
30

$$$$
EOS100420
  SciTegic04282016392D

 32 35  0  0  0  0            999 V2000
    0.1106    3.6020    0.0000 C   0  0
    0.1106    2.7770    0.0000 C   0  0
    0.8250    2.3645    0.0000 C   0  0
    1.5395    2.7770    0.0000 C   0  0
    1.5395    3.6020    0.0000 C   0  0
    0.8250    4.0145    0.0000 C   0  0
    0.8250    4.8395    0.0000 C   0  0
    1.4924    5.3244    0.0000 C   0  0
    1.2375    6.1091    0.0000 C   0  0
    0.4125    6.1091    0.0000 S   0  0
    0.1576    5.3244    0.0000 C   0  0
    0.8250    1.5395    0.0000 S   0  0
    2.2540    4.0145    0.0000 N   0  0
    2.9684    3.6020    0.0000 C   0  0
    3.6829    4.0145    0.0000 N   0  0
    2.9684    2.7770    0.0000 O   0  0
    4.3974    3.6020    0.0000 C   0  0
    4.3974    2.7770    0.0000 C   0  0
    5.1119    2.3645    0.0000 C   0  0
    5.8264    2.7770    0.0000 C   0  0
    5.8264    3.6020    0.0000 C   0  0
    5.1119    4.0145    0.0000 C   0  0
    6.5409    4.0145    0.0000 C   0  0
    6.1284    4.7290    0.0000 F   0  0
    7.2553    4.4270    0.0000 F   0  0
    6.9534    3.3000    0.0000 F   0  0
    0.8250    0.7145    0.0000 O   0  0
    0.0000    1.5395    0.0000 O   0  0
    1.6500    1.5395    0.0000 N   0  0
    2.0625    0.8250    0.0000 C   0  0
    2.0625    0.0000    0.0000 C   0  0
    2.7770    0.4125    0.0000 C   0  0
  1  2  2  0
  2  3  1  0
  3  4  2  0
  4  5  1  0
  5  6  2  0
  6  1  1  0
  6  7  1  0
  7  8  1  0
  8  9  2  0
  9 10  1  0
 10 11  1  0
 11  7  2  0
  3 12  1  0
  5 13  1  0
 13 14  1  0
 14 15  1  0
 14 16  2  0
 15 17  1  0
 17 18  2  0
 18 19  1  0
 19 20  2  0
 20 21  1  0
 21 22  2  0
 22 17  1  0
 21 23  1  0
 12 27  2  0
 12 28  2  0
 12 29  1  0
 29 30  1  0
 30 31  1  0
 31 32  1  0
 32 30  1  0
 23 24  1  0
 23 25  1  0
 23 26  1  0
M  END
> <Library>
Bioactives

> <Batch>
2012

> <PLATE>
B1002L2012M01

> <WELL>
G17

> <EOS>
EOS100420

> <CCMF_source_vial_barcode>
LV2001696293

> <concentration_mM>
10

> <volume_ul>
30

$$$$
EOS100421
  SciTegic04282016392D

 47 52  0  0  0  0            999 V2000
    0.8250    9.2711    0.0000 C   0  0
    0.8250    8.4461    0.0000 C   0  0
    1.5395    8.0335    0.0000 C   0  0
    2.2540    8.4461    0.0000 C   0  0
    2.2540    9.2711    0.0000 C   0  0
    1.5395    9.6836    0.0000 C   0  0
    2.9684    8.0335    0.0000 C   0  0
    3.6829    8.4461    0.0000 N   0  0
    3.6829    9.2711    0.0000 C   0  0
    2.9684    9.6836    0.0000 C   0  0
    1.5395    7.2085    0.0000 C   0  0
    2.2540    6.7960    0.0000 O   0  0
    0.8250    6.7960    0.0000 N   0  0
    0.8250    5.9710    0.0000 C   0  0
    0.1576    5.4861    0.0000 N   0  0
    0.4125    4.7014    0.0000 C   0  0
    1.2375    4.7014    0.0000 C   0  0
    1.4924    5.4861    0.0000 S   0  0
    0.0000    3.9869    0.0000 C   0  0
    0.4125    3.2725    0.0000 C   0  0
    1.2375    3.2725    0.0000 C   0  0
    1.6500    3.9869    0.0000 C   0  0
    4.3974    8.0335    0.0000 C   0  0
    4.4836    7.2130    0.0000 S   0  0
    5.2906    7.0415    0.0000 C   0  0
    5.7031    7.7560    0.0000 C   0  0
    5.1511    8.3691    0.0000 N   0  0
    6.5237    7.8422    0.0000 C   0  0
    7.0086    7.1748    0.0000 O   0  0
    6.8592    8.5959    0.0000 O   0  0
    5.6262    6.2878    0.0000 C   0  0
    6.4467    6.2016    0.0000 C   0  0
    6.7822    5.4479    0.0000 C   0  0
    7.6027    5.3616    0.0000 O   0  0
    7.9383    4.6080    0.0000 C   0  0
    7.4534    3.9405    0.0000 C   0  0
    7.7889    3.1868    0.0000 C   0  0
    8.6094    3.1006    0.0000 C   0  0
    9.0943    3.7681    0.0000 C   0  0
    8.7588    4.5217    0.0000 C   0  0
    9.2437    5.1892    0.0000 F   0  0
    8.9450    2.3469    0.0000 C   0  0
    9.2805    1.5934    0.0000 C   0  0
    9.6160    0.8399    0.0000 C   0  0
   10.4365    0.7537    0.0000 N   0  0
   10.9214    1.4211    0.0000 C   0  0
   10.7721    0.0000    0.0000 C   0  0
  1  2  2  0
  2  3  1  0
  3  4  2  0
  4  5  1  0
  5  6  2  0
  6  1  1  0
  4  7  1  0
  7  8  1  0
  8  9  1  0
  9 10  1  0
 10  5  1  0
  3 11  1  0
 11 12  2  0
 11 13  1  0
 13 14  1  0
 14 15  2  0
 15 16  1  0
 16 17  1  0
 17 18  1  0
 18 14  1  0
 16 19  2  0
 19 20  1  0
 20 21  2  0
 21 22  1  0
 22 17  2  0
  8 23  1  0
 23 24  1  0
 24 25  1  0
 25 26  2  0
 26 27  1  0
 27 23  2  0
 26 28  1  0
 28 29  1  0
 28 30  2  0
 25 31  1  0
 31 32  1  0
 32 33  1  0
 33 34  1  0
 34 35  1  0
 35 36  2  0
 36 37  1  0
 37 38  2  0
 38 39  1  0
 39 40  2  0
 40 35  1  0
 40 41  1  0
 38 42  1  0
 42 43  3  0
 43 44  1  0
 44 45  1  0
 45 46  1  0
 45 47  1  0
M  END
> <Library>
Bioactives

> <Batch>
2012

> <PLATE>
B1002L2012M01

> <WELL>
I17

> <EOS>
EOS100421

> <CCMF_source_vial_barcode>
LV2001695078

> <concentration_mM>
10

> <volume_ul>
30

$$$$
EOS100422
  SciTegic04282016392D

 42 46  0  0  0  0            999 V2000
   -1.7861   -1.9397    0.0000 N   0  0
   -1.0717   -1.5273    0.0000 C   0  0  2  0  0  0
   -0.3572   -1.9397    0.0000 C   0  0  2  0  0  0
   -0.3572   -2.7647    0.0000 C   0  0
   -1.0717   -3.1772    0.0000 C   0  0
   -1.7861   -2.7647    0.0000 C   0  0
    0.3572   -1.5273    0.0000 C   0  0
    0.3572   -0.7023    0.0000 O   0  0
    1.0717   -1.9397    0.0000 N   0  0
    1.7861   -1.5273    0.0000 C   0  0
    2.5005   -1.9397    0.0000 C   0  0
    3.2150   -1.5273    0.0000 C   0  0
    3.2150   -0.7023    0.0000 C   0  0
    2.5005   -0.2898    0.0000 C   0  0
    1.7861   -0.7023    0.0000 C   0  0
    3.9295   -1.9397    0.0000 C   0  0
    3.9295   -2.7647    0.0000 F   0  0
    4.6440   -2.3522    0.0000 F   0  0
    4.6440   -1.5273    0.0000 F   0  0
    3.9295   -0.2898    0.0000 C   0  0
   -2.5005   -1.5273    0.0000 C   0  0
   -3.2150   -1.9397    0.0000 C   0  0
   -3.2150   -2.7647    0.0000 C   0  0
   -3.9295   -3.1772    0.0000 C   0  0
   -4.6440   -2.7647    0.0000 C   0  0
   -4.6440   -1.9397    0.0000 C   0  0
   -3.9295   -1.5273    0.0000 C   0  0
   -2.5005   -0.7023    0.0000 O   0  0
   -3.9295   -0.7023    0.0000 C   0  0
   -2.5005   -3.1772    0.0000 F   0  0
   -1.0717   -0.7023    0.0000 C   0  0
   -1.7861   -0.2898    0.0000 C   0  0
   -1.7861    0.5352    0.0000 C   0  0
   -1.0717    0.9477    0.0000 C   0  0
   -0.3572    0.5352    0.0000 C   0  0
   -0.3572   -0.2898    0.0000 C   0  0
   -1.0717    1.7726    0.0000 N   0  0
   -0.3572    2.1851    0.0000 C   0  0
   -0.2710    3.0056    0.0000 C   0  0
    0.5360    3.1772    0.0000 C   0  0
    0.9485    2.4627    0.0000 C   0  0
    0.3964    1.8496    0.0000 C   0  0
  2  1  1  0
  2  3  1  0
  3  4  1  0
  4  5  1  0
  5  6  1  0
  1  6  1  0
  7  8  2  0
  7  9  1  0
  3  7  1  1
 10 11  2  0
 11 12  1  0
 12 13  2  0
 13 14  1  0
 14 15  2  0
 10 15  1  0
 16 17  1  0
 16 18  1  0
 16 19  1  0
 12 16  1  0
 13 20  1  0
  9 10  1  0
 21 22  1  0
 22 23  2  0
 23 24  1  0
 24 25  2  0
 25 26  1  0
 26 27  2  0
 22 27  1  0
 21 28  2  0
 27 29  1  0
 23 30  1  0
  1 21  1  0
 31 32  2  0
 32 33  1  0
 33 34  2  0
 34 35  1  0
 35 36  2  0
 31 36  1  0
 38 39  1  0
 39 40  1  0
 40 41  1  0
 41 42  1  0
 38 42  1  0
 37 38  1  0
 34 37  1  0
  2 31  1  1
M  END
> <Library>
Bioactives

> <Batch>
2012

> <PLATE>
B1002L2012M01

> <WELL>
K17

> <EOS>
EOS100422

> <CCMF_source_vial_barcode>
LV2001696218

> <concentration_mM>
10

> <volume_ul>
30

$$$$
EOS100423
  SciTegic04282016392D

 37 41  0  0  0  0            999 V2000
    2.0917    2.8530    0.0000 C   0  0
    2.5042    2.1385    0.0000 N   0  0
    3.3292    2.1385    0.0000 N   0  0
    3.7418    2.8530    0.0000 C   0  0
    3.3292    3.5675    0.0000 C   0  0
    2.5042    3.5675    0.0000 C   0  0
    1.2696    2.8530    0.0000 C   0  0
    4.5639    2.8530    0.0000 N   0  0
    4.9765    2.1385    0.0000 C   0  0
    5.8015    2.1385    0.0000 C   0  0
    6.2140    2.8530    0.0000 C   0  0
    5.8015    3.5675    0.0000 C   0  0
    4.9765    3.5675    0.0000 C   0  0
    7.0361    2.8530    0.0000 N   0  0
    7.4472    3.5650    0.0000 C   0  0
    7.4472    2.1410    0.0000 C   0  0
    7.0361    1.4290    0.0000 O   0  0
    8.2693    2.1410    0.0000 C   0  0
    8.6818    1.4265    0.0000 C   0  0
    9.5069    1.4265    0.0000 C   0  0
    9.9194    2.1410    0.0000 C   0  0
    9.5069    2.8554    0.0000 C   0  0
    8.6818    2.8554    0.0000 C   0  0
   10.7416    2.1410    0.0000 F   0  0
    8.2707    0.7145    0.0000 C   0  0
    8.9853    0.3020    0.0000 F   0  0
    7.8582    0.0000    0.0000 F   0  0
    7.5563    1.1270    0.0000 F   0  0
    0.7847    3.5204    0.0000 C   0  0
    0.0000    3.2655    0.0000 C   0  0
    0.0000    2.4405    0.0000 N   0  0
    0.7847    2.1855    0.0000 N   0  0
    1.0387    1.4036    0.0000 C   0  0
    3.7418    4.2820    0.0000 C   0  0
    3.3292    4.9964    0.0000 C   0  0
    2.5042    4.9964    0.0000 C   0  0
    2.0917    4.2820    0.0000 C   0  0
  1  2  1  0
  2  3  2  0
  3  4  1  0
  4  5  2  0
  5  6  1  0
  6  1  2  0
  1  7  1  0
  4  8  1  0
  8  9  1  0
  9 10  1  0
 10 11  1  0
 11 12  1  0
 12 13  1  0
 13  8  1  0
 11 14  1  0
 14 15  1  0
 14 16  1  0
 16 17  2  0
 16 18  1  0
 18 19  2  0
 19 20  1  0
 20 21  2  0
 21 22  1  0
 22 23  2  0
 23 18  1  0
 21 24  1  0
 19 25  1  0
  7 29  2  0
 29 30  1  0
 30 31  2  0
 31 32  1  0
 32  7  1  0
 32 33  1  0
  5 34  1  0
 34 35  2  0
 35 36  1  0
 36 37  2  0
 37  6  1  0
 25 26  1  0
 25 27  1  0
 25 28  1  0
M  END
> <Library>
Bioactives

> <Batch>
2012

> <PLATE>
B1002L2012M01

> <WELL>
M17

> <EOS>
EOS100423

> <CCMF_source_vial_barcode>
LV2001695577

> <concentration_mM>
10

> <volume_ul>
30

$$$$
EOS100424
  SciTegic04282016392D

 29 32  0  0  0  0            999 V2000
   -1.1633    3.1080    0.0000 F   0  0
   -0.9083    2.3234    0.0000 C   0  0
   -0.1014    2.1518    0.0000 C   0  0
    0.1536    1.3672    0.0000 C   0  0
   -0.3984    0.7541    0.0000 C   0  0
   -1.2054    0.9256    0.0000 C   0  0
   -1.4604    1.7103    0.0000 C   0  0
   -0.1435   -0.0305    0.0000 C   0  0
   -0.6284   -0.6979    0.0000 N   0  0
   -1.4534   -0.6979    0.0000 C   0  0
   -1.8659   -1.4124    0.0000 C   0  0
   -2.6909   -1.4124    0.0000 C   0  0
   -3.1034   -2.1269    0.0000 C   0  0
   -2.6909   -2.8414    0.0000 C   0  0
   -1.8659   -2.8414    0.0000 C   0  0
   -1.4534   -2.1269    0.0000 C   0  0
   -0.6284   -2.1269    0.0000 Cl  0  0
   -3.1034   -3.5558    0.0000 F   0  0
   -0.1435   -1.3654    0.0000 N   0  0
    0.6411   -1.1104    0.0000 C   0  0
    0.6411   -0.2854    0.0000 C   0  0
    1.3556    0.1271    0.0000 C   0  0
    2.0701   -0.2854    0.0000 C   0  0
    2.0701   -1.1104    0.0000 C   0  0
    1.3556   -1.5229    0.0000 C   0  0
    1.3556   -2.3479    0.0000 C   0  0
    1.3556   -3.1729    0.0000 F   0  0
    0.5306   -2.3479    0.0000 F   0  0
    2.1806   -2.3479    0.0000 F   0  0
  1  2  1  0
  2  3  2  0
  3  4  1  0
  4  5  2  0
  5  6  1  0
  6  7  2  0
  2  7  1  0
  5  8  1  0
  8  9  1  0
  9 10  1  0
 10 11  1  0
 11 12  2  0
 12 13  1  0
 13 14  2  0
 14 15  1  0
 15 16  2  0
 11 16  1  0
 16 17  1  0
 14 18  1  0
  9 19  1  0
 19 20  2  0
 20 21  1  0
  8 21  2  0
 21 22  1  0
 22 23  2  0
 23 24  1  0
 24 25  2  0
 20 25  1  0
 25 26  1  0
 26 27  1  0
 26 28  1  0
 26 29  1  0
M  END
> <Library>
Bioactives

> <Batch>
2012

> <PLATE>
B1002L2012M01

> <WELL>
O17

> <EOS>
EOS100424

> <CCMF_source_vial_barcode>
LV2001695606

> <concentration_mM>
10

> <volume_ul>
30

$$$$
EOS100425
  SciTegic04282016392D

 32 35  0  0  0  0            999 V2000
    3.5724    1.2375    0.0000 N   0  0
    3.5724    0.4125    0.0000 C   0  0
    4.2869    0.0000    0.0000 N   0  0
    5.0014    0.4125    0.0000 C   0  0
    5.0014    1.2375    0.0000 C   0  0
    4.2869    1.6500    0.0000 C   0  0
    2.8579    0.0000    0.0000 N   0  0
    2.1435    0.4125    0.0000 C   0  0
    1.4290    0.0000    0.0000 C   0  0
    0.7145    0.4125    0.0000 C   0  0
    0.0000    0.0000    0.0000 C   0  0
    4.2869    2.4751    0.0000 N   0  0
    3.5724    2.8876    0.0000 C   0  0  2  0  0  0
    3.5724    3.7126    0.0000 C   0  0
    2.8579    4.1251    0.0000 C   0  0
    2.1435    3.7126    0.0000 C   0  0  2  0  0  0
    2.1435    2.8876    0.0000 C   0  0
    2.8579    2.4751    0.0000 C   0  0
    1.4290    4.1251    0.0000 O   0  0
    5.7134    1.6486    0.0000 C   0  0
    6.4279    1.2361    0.0000 C   0  0
    7.1424    1.6486    0.0000 C   0  0
    7.1424    2.4736    0.0000 C   0  0
    6.4279    2.8861    0.0000 C   0  0
    5.7134    2.4736    0.0000 N   0  0
    7.8544    2.8847    0.0000 C   0  0
    8.5664    2.4736    0.0000 N   0  0
    8.5664    1.6486    0.0000 C   0  0
    9.2809    1.2361    0.0000 C   0  0
    9.9954    1.6486    0.0000 O   0  0
    9.9954    2.4736    0.0000 C   0  0
    9.2809    2.8861    0.0000 C   0  0
  1  2  2  0
  2  3  1  0
  3  4  2  0
  4  5  1  0
  5  6  2  0
  6  1  1  0
  2  7  1  0
  7  8  1  0
  8  9  1  0
  9 10  1  0
 10 11  1  0
  6 12  1  0
 13 12  1  1
 13 14  1  0
 14 15  1  0
 16 15  1  0
 16 17  1  0
 17 18  1  0
 13 18  1  0
 16 19  1  6
  5 20  1  0
 20 21  2  0
 21 22  1  0
 22 23  2  0
 23 24  1  0
 24 25  2  0
 25 20  1  0
 23 26  1  0
 26 27  1  0
 27 28  1  0
 28 29  1  0
 29 30  1  0
 30 31  1  0
 31 32  1  0
 32 27  1  0
M  END
> <Library>
Bioactives

> <Batch>
2012

> <PLATE>
B1002L2012M01

> <WELL>
A19

> <EOS>
EOS100425

> <CCMF_source_vial_barcode>
LV2001695657

> <concentration_mM>
10

> <volume_ul>
30

$$$$
EOS100426
  SciTegic04282016392D

 26 28  0  0  0  0            999 V2000
    4.5696    2.1434    0.0000 C   0  0
    3.7446    2.1434    0.0000 C   0  0
    3.3321    1.4290    0.0000 C   0  0
    3.7446    0.7144    0.0000 C   0  0
    4.5696    0.7144    0.0000 C   0  0
    4.9821    1.4290    0.0000 C   0  0
    2.5071    1.4290    0.0000 N   0  0
    2.0946    2.1434    0.0000 C   0  0
    2.5071    2.8579    0.0000 O   0  0
    1.2696    2.1434    0.0000 C   0  0
    0.7846    2.8108    0.0000 C   0  0
    0.0000    2.5559    0.0000 C   0  0
    0.0000    1.7309    0.0000 C   0  0
    0.7846    1.4760    0.0000 C   0  0
    1.0396    0.6913    0.0000 C   0  0
    0.4875    0.0783    0.0000 O   0  0
    1.8465    0.5198    0.0000 O   0  0
    3.3321    0.0000    0.0000 F   0  0
    5.8071    1.4290    0.0000 C   0  0
    6.2196    0.7144    0.0000 C   0  0
    7.0446    0.7144    0.0000 C   0  0
    7.4571    1.4290    0.0000 C   0  0
    7.0446    2.1434    0.0000 C   0  0
    6.2196    2.1434    0.0000 C   0  0
    7.4571    2.8579    0.0000 O   0  0
    8.2821    2.8579    0.0000 C   0  0
  1  2  2  0
  2  3  1  0
  3  4  2  0
  4  5  1  0
  5  6  2  0
  6  1  1  0
  3  7  1  0
  7  8  1  0
  8  9  2  0
  8 10  1  0
 10 11  1  0
 11 12  1  0
 12 13  1  0
 13 14  1  0
 14 10  2  0
 14 15  1  0
 15 16  1  0
 15 17  2  0
  4 18  1  0
  6 19  1  0
 19 20  2  0
 20 21  1  0
 21 22  2  0
 22 23  1  0
 23 24  2  0
 24 19  1  0
 23 25  1  0
 25 26  1  0
M  END
> <Library>
Bioactives

> <Batch>
2012

> <PLATE>
B1002L2012M01

> <WELL>
C19

> <EOS>
EOS100426

> <CCMF_source_vial_barcode>
LV2001695115

> <concentration_mM>
10

> <volume_ul>
30

$$$$
EOS100427
  SciTegic04282016392D

 32 36  0  0  0  0            999 V2000
   -3.7113    2.4143    0.0000 C   0  0
   -3.0438    1.9294    0.0000 N   0  0
   -3.1300    1.1089    0.0000 C   0  0
   -2.2901    2.2649    0.0000 C   0  0
   -2.2039    3.0855    0.0000 O   0  0
   -1.6227    1.7800    0.0000 C   0  0
   -0.8690    2.1156    0.0000 C   0  0
   -0.2015    1.6307    0.0000 C   0  0
   -0.2015    0.8056    0.0000 O   0  0
    0.5831    0.5507    0.0000 C   0  0
    1.0680    1.2182    0.0000 C   0  0
    0.5831    1.8856    0.0000 C   0  0
    0.8380   -0.2339    0.0000 C   0  0
    0.3531   -0.9015    0.0000 N   0  0
    0.8380   -1.5689    0.0000 C   0  0
    1.6227   -1.3139    0.0000 C   0  0
    1.6227   -0.4889    0.0000 N   0  0
    2.2901   -0.0039    0.0000 C   0  0
    3.0438   -0.3395    0.0000 C   0  0
    3.7113    0.1454    0.0000 C   0  0
    3.6251    0.9659    0.0000 C   0  0
    2.8713    1.3014    0.0000 C   0  0
    2.2039    0.8166    0.0000 C   0  0
    0.6665   -2.3758    0.0000 C   0  0
    1.2797   -2.9279    0.0000 N   0  0
    2.0643   -2.6729    0.0000 C   0  0
    2.2358   -1.8659    0.0000 C   0  0
    2.7787   -3.0855    0.0000 N   0  0
    3.3919   -2.5335    0.0000 C   0  0
    3.0563   -1.7797    0.0000 C   0  0
   -1.7090    0.9596    0.0000 C   0  0
   -1.7952    0.1390    0.0000 N   0  0
  1  2  1  0
  2  3  1  0
  2  4  1  0
  4  5  2  0
  4  6  1  0
  6 31  1  0
  6  7  2  0
  7  8  1  0
  8  9  1  0
  9 10  1  0
 10 11  2  0
 11 12  1  0
 12  8  2  0
 10 13  1  0
 13 14  2  0
 14 15  1  0
 15 16  1  0
 16 17  1  0
 17 13  1  0
 17 18  1  0
 18 19  1  0
 19 20  1  0
 20 21  1  0
 21 22  1  0
 22 23  1  0
 23 18  1  0
 15 24  2  0
 24 25  1  0
 25 26  2  0
 26 27  1  0
 27 16  2  0
 26 28  1  0
 28 29  1  0
 29 30  2  0
 30 27  1  0
 31 32  3  0
M  END
> <Library>
Bioactives

> <Batch>
2012

> <PLATE>
B1002L2012M01

> <WELL>
E19

> <EOS>
EOS100427

> <CCMF_source_vial_barcode>
LV2001696191

> <concentration_mM>
10

> <volume_ul>
30

$$$$
EOS100428
  SciTegic04282016392D

 34 36  0  0  0  0            999 V2000
    0.7145   -0.4125    0.0000 Cl  0  0
    0.7145   -1.2375    0.0000 C   0  0
    1.4289   -1.6500    0.0000 C   0  0
    1.4289   -2.4750    0.0000 C   0  0
    2.1434   -2.8875    0.0000 N   0  0
    2.1434   -3.7125    0.0000 C   0  0
    2.8579   -4.1250    0.0000 C   0  0
    2.8579   -4.9500    0.0000 C   0  0
    3.5724   -5.3625    0.0000 C   0  0
    3.5724   -6.1875    0.0000 C   0  0
    2.8579   -6.6000    0.0000 C   0  0
    2.8579   -7.4250    0.0000 S   0  0
    2.8579   -8.2500    0.0000 C   0  0
    2.1434   -8.6625    0.0000 C   0  0
    3.6829   -7.4250    0.0000 O   0  0
    2.0329   -7.4250    0.0000 O   0  0
    2.1434   -6.1875    0.0000 C   0  0
    2.1434   -5.3625    0.0000 C   0  0
    1.4289   -4.1250    0.0000 O   0  0
    0.7145   -2.8875    0.0000 C   0  0
    0.0000   -2.4750    0.0000 C   0  0
   -0.7145   -2.8875    0.0000 Cl  0  0
    0.0000   -1.6500    0.0000 C   0  0
   -0.7145   -1.2375    0.0000 C   0  0
   -1.4289   -1.6500    0.0000 C   0  0
   -1.4289   -2.4750    0.0000 O   0  0
   -2.1434   -2.8875    0.0000 C   0  0
   -2.8579   -3.3000    0.0000 F   0  0
   -2.5559   -2.1730    0.0000 F   0  0
   -1.7309   -3.6020    0.0000 F   0  0
   -2.1434   -1.2375    0.0000 C   0  0
   -2.1434   -0.4125    0.0000 C   0  0
   -1.4289    0.0000    0.0000 C   0  0
   -0.7145   -0.4125    0.0000 C   0  0
  1  2  1  0
  2  3  2  0
  3  4  1  0
  4  5  1  0
  5  6  1  0
  6  7  1  0
  7  8  1  0
  8  9  2  0
  9 10  1  0
 10 11  2  0
 11 12  1  0
 12 13  1  0
 13 14  1  0
 12 15  2  0
 12 16  2  0
 11 17  1  0
 17 18  2  0
  8 18  1  0
  6 19  2  0
  4 20  2  0
 20 21  1  0
 21 22  1  0
 21 23  2  0
  2 23  1  0
 23 24  1  0
 24 25  2  0
 25 26  1  0
 26 27  1  0
 27 28  1  0
 27 29  1  0
 27 30  1  0
 25 31  1  0
 31 32  2  0
 32 33  1  0
 33 34  2  0
 24 34  1  0
M  END
> <Library>
Bioactives

> <Batch>
2012

> <PLATE>
B1002L2012M01

> <WELL>
G19

> <EOS>
EOS100428

> <CCMF_source_vial_barcode>
LV2001695066

> <concentration_mM>
10

> <volume_ul>
30

$$$$
EOS100429
  SciTegic04282016392D

 30 33  0  0  0  0            999 V2000
    6.2102    9.3604    0.0000 F   0  0
    5.4957    8.9479    0.0000 C   0  0
    5.4957    8.1229    0.0000 C   0  0
    4.7812    7.7104    0.0000 C   0  0
    4.7812    6.8854    0.0000 S   0  0
    4.7812    6.0604    0.0000 C   0  0
    5.4957    5.6479    0.0000 C   0  0
    5.4957    4.8229    0.0000 C   0  0
    4.7812    4.4104    0.0000 C   0  0
    4.7812    3.5854    0.0000 C   0  0
    4.0668    3.1729    0.0000 N   0  0
    4.0668    2.3479    0.0000 C   0  0
    3.3523    1.9354    0.0000 C   0  0
    3.3523    1.1104    0.0000 C   0  0
    2.6378    0.6979    0.0000 C   0  0
    2.6378    2.3479    0.0000 C   0  0
    1.9233    1.9354    0.0000 N   0  0
    1.9233    1.1104    0.0000 C   0  0
    1.1387    0.8555    0.0000 N   0  0
    0.6538    1.5229    0.0000 C   0  0
    1.1387    2.1904    0.0000 C   0  0
    4.7812    1.9354    0.0000 O   0  0
    4.0668    4.8229    0.0000 C   0  0
    4.0668    5.6479    0.0000 C   0  0
    3.9562    6.8854    0.0000 O   0  0
    5.6062    6.8854    0.0000 O   0  0
    4.0668    8.1229    0.0000 C   0  0
    4.0668    8.9479    0.0000 C   0  0
    3.3523    9.3604    0.0000 F   0  0
    4.7812    9.3604    0.0000 C   0  0
  1  2  1  0
  2  3  2  0
  3  4  1  0
  4  5  1  0
  5  6  1  0
  6  7  2  0
  7  8  1  0
  8  9  2  0
  9 10  1  0
 10 11  1  0
 11 12  1  0
 12 13  1  0
 13 14  1  0
 14 15  2  0
 13 16  2  0
 16 17  1  0
 17 18  1  0
 15 18  1  0
 18 19  2  0
 19 20  1  0
 20 21  2  0
 17 21  1  0
 12 22  2  0
  9 23  1  0
 23 24  2  0
  6 24  1  0
  5 25  2  0
  5 26  2  0
  4 27  2  0
 27 28  1  0
 28 29  1  0
 28 30  2  0
  2 30  1  0
M  END
> <Library>
Bioactives

> <Batch>
2012

> <PLATE>
B1002L2012M01

> <WELL>
I19

> <EOS>
EOS100429

> <CCMF_source_vial_barcode>
LV2001696263

> <concentration_mM>
10

> <volume_ul>
30

$$$$
EOS100430
  SciTegic04282016392D

 26 29  0  0  0  0            999 V2000
    3.2789    5.3625    0.0000 C   0  0
    3.2789    4.5375    0.0000 S   0  0
    2.4539    4.5375    0.0000 O   0  0
    4.1039    4.5375    0.0000 O   0  0
    3.2789    3.7125    0.0000 C   0  0
    3.9934    3.3000    0.0000 C   0  0
    3.9934    2.4750    0.0000 C   0  0
    3.2789    2.0625    0.0000 C   0  0
    2.5645    2.4750    0.0000 C   0  0
    2.5645    3.3000    0.0000 C   0  0
    3.2789    1.2375    0.0000 C   0  0
    3.9934    0.8250    0.0000 C   0  0
    3.9934    0.0000    0.0000 N   0  0
    3.2789   -0.4125    0.0000 C   0  0
    2.5645    0.0000    0.0000 N   0  0
    2.5645    0.8250    0.0000 C   0  0
    1.7798    1.0799    0.0000 N   0  0
    1.2949    0.4125    0.0000 N   0  0
    1.7798   -0.2549    0.0000 C   0  0
    3.2789   -1.2375    0.0000 N   0  0
    3.9934   -1.6500    0.0000 C   0  0
    3.9934   -2.4750    0.0000 C   0  0
    4.6608   -2.9599    0.0000 C   0  0
    4.4059   -3.7445    0.0000 C   0  0
    3.5809   -3.7445    0.0000 C   0  0
    3.3260   -2.9599    0.0000 O   0  0
  1  2  1  0
  2  3  2  0
  2  4  2  0
  2  5  1  0
  5  6  2  0
  6  7  1  0
  7  8  2  0
  8  9  1  0
  9 10  2  0
  5 10  1  0
  8 11  1  0
 11 12  2  0
 12 13  1  0
 13 14  2  0
 14 15  1  0
 15 16  1  0
 11 16  1  0
 16 17  2  0
 17 18  1  0
 18 19  2  0
 15 19  1  0
 14 20  1  0
 20 21  1  0
 21 22  1  0
 22 23  2  0
 23 24  1  0
 24 25  2  0
 25 26  1  0
 22 26  1  0
M  END
> <Library>
Bioactives

> <Batch>
2012

> <PLATE>
B1002L2012M01

> <WELL>
K19

> <EOS>
EOS100430

> <CCMF_source_vial_barcode>
LV2001695692

> <concentration_mM>
10

> <volume_ul>
30

$$$$
EOS100431
  SciTegic04282016392D

 30 34  0  0  0  0            999 V2000
   -1.1706    2.1088    0.0000 C   0  0  1  0  0  0
   -0.3636    1.9372    0.0000 C   0  0
   -0.1087    1.1526    0.0000 C   0  0
   -0.6607    0.5395    0.0000 C   0  0  1  0  0  0
   -1.4677    0.7110    0.0000 C   0  0
   -1.7226    1.4957    0.0000 C   0  0
   -2.6697    1.9512    0.0000 C   0  0
   -1.9552    2.3637    0.0000 C   0  0
   -1.9552    3.1887    0.0000 C   0  0
   -2.6697    3.6012    0.0000 C   0  0
   -3.3842    3.1887    0.0000 C   0  0
   -3.3842    2.3637    0.0000 N   0  0
   -0.6857    2.7762    0.0000 O   0  0
   -1.1706    3.4436    0.0000 C   0  0
   -0.4058   -0.2451    0.0000 C   0  0
   -0.9891   -0.8285    0.0000 O   0  0
    0.3911   -0.4586    0.0000 N   0  0
   -0.9157    4.2283    0.0000 O   0  0
    1.3317   -2.3750    0.0000 N   0  0
    1.3748   -1.5512    0.0000 N   0  0
    0.6046   -1.2555    0.0000 C   0  0
    0.0854   -1.8967    0.0000 C   0  0
    0.5348   -2.5886    0.0000 C   0  0
    1.9728   -2.8942    0.0000 C   0  0
    1.8438   -3.7091    0.0000 C   0  0
    2.4849   -4.2283    0.0000 C   0  0
    3.2551   -3.9326    0.0000 C   0  0
    3.3842   -3.1178    0.0000 C   0  0
    2.7430   -2.5986    0.0000 C   0  0
    1.0735   -4.0047    0.0000 F   0  0
  1  2  1  0
  2  3  1  0
  4  3  1  0
  4  5  1  0
  5  6  1  0
  1  6  1  0
  7  8  2  0
  8  9  1  0
  9 10  2  0
 10 11  1  0
 11 12  2  0
  7 12  1  0
 13 14  1  0
  9 14  1  0
  1  8  1  0
  1 13  1  6
 15 16  2  0
 15 17  1  0
  4 15  1  6
 14 18  2  0
 19 20  1  0
 20 21  2  0
 21 22  1  0
 22 23  2  0
 19 23  1  0
 24 25  2  0
 25 26  1  0
 26 27  2  0
 27 28  1  0
 28 29  2  0
 24 29  1  0
 25 30  1  0
 19 24  1  0
 17 21  1  0
M  END
> <Library>
Bioactives

> <Batch>
2012

> <PLATE>
B1002L2012M01

> <WELL>
M19

> <EOS>
EOS100431

> <CCMF_source_vial_barcode>
LV2001696299

> <concentration_mM>
10

> <volume_ul>
30

$$$$
EOS100432
  SciTegic04282016392D

 28 30  0  0  0  0            999 V2000
    2.1434    1.8562    0.0000 O   0  0
    2.1434    1.0312    0.0000 C   0  0
    1.4289    0.6187    0.0000 C   0  0
    0.7145    1.0312    0.0000 C   0  0
    0.0000    0.6187    0.0000 N   0  0
    0.0000   -0.2063    0.0000 C   0  0
   -0.7145   -0.6188    0.0000 N   0  0
   -1.4289   -0.2063    0.0000 C   0  0
   -2.1434   -0.6188    0.0000 C   0  0
   -2.8579   -0.2063    0.0000 C   0  0
   -2.8579    0.6187    0.0000 C   0  0
   -3.5724    1.0312    0.0000 C   0  0
   -4.2868    0.6187    0.0000 C   0  0
   -5.0013    1.0312    0.0000 O   0  0
   -4.2868   -0.2063    0.0000 C   0  0
   -5.0013   -0.6188    0.0000 Cl  0  0
   -3.5724   -0.6188    0.0000 C   0  0
    0.7145   -0.6188    0.0000 N   0  0
    1.4289   -0.2063    0.0000 C   0  0
    2.1434   -0.6188    0.0000 N   0  0
    2.8579   -0.2063    0.0000 C   0  0
    3.5724   -0.6188    0.0000 C   0  0
    4.2868   -0.2063    0.0000 C   0  0
    5.0013   -0.6188    0.0000 C   0  0
    5.0013   -1.4438    0.0000 C   0  0
    4.2868   -1.8562    0.0000 C   0  0
    3.5724   -1.4437    0.0000 C   0  0
    2.8579    0.6187    0.0000 N   0  0
  1  2  2  0
  2  3  1  0
  3  4  2  0
  4  5  1  0
  5  6  2  0
  6  7  1  0
  7  8  1  0
  8  9  1  0
  9 10  1  0
 10 11  2  0
 11 12  1  0
 12 13  2  0
 13 14  1  0
 13 15  1  0
 15 16  1  0
 15 17  2  0
 10 17  1  0
  6 18  1  0
 18 19  2  0
  3 19  1  0
 19 20  1  0
 20 21  1  0
 21 22  1  0
 22 23  2  0
 23 24  1  0
 24 25  2  0
 25 26  1  0
 26 27  2  0
 22 27  1  0
  2 28  1  0
M  END
> <Library>
Bioactives

> <Batch>
2012

> <PLATE>
B1002L2012M01

> <WELL>
O19

> <EOS>
EOS100432

> <CCMF_source_vial_barcode>
LV2001695652

> <concentration_mM>
10

> <volume_ul>
30

$$$$
EOS100433
  SciTegic04282016392D

 17 19  0  0  0  0            999 V2000
    8.0520    7.0420    0.0000 C   0  0
    8.8770    7.0420    0.0000 C   0  0
    9.2895    6.3276    0.0000 C   0  0
    8.8770    5.6131    0.0000 C   0  0
    7.6395    6.3276    0.0000 C   0  0
    6.8325    6.1560    0.0000 C   0  0
    8.0520    5.6131    0.0000 C   0  0
    7.5000    5.0000    0.0000 N   0  0
    6.7463    5.3356    0.0000 C   0  0
    6.2195    6.7081    0.0000 C   0  0
    5.5520    7.8641    0.0000 C   0  0
    6.3057    7.5286    0.0000 C   0  0
    5.4125    6.5365    0.0000 C   0  0
    5.0000    7.2510    0.0000 N   0  0
    9.2895    7.7565    0.0000 F   0  0
    5.0769    5.7829    0.0000 O   0  0
    5.3805    8.6711    0.0000 O   0  0
  1  2  1  0
  1  5  2  0
  2  3  2  0
  3  4  1  0
  4  7  2  0
  6  5  1  0
  6  9  2  0
  7  8  1  0
  8  9  1  0
  5  7  1  0
  6 10  1  0
 12 10  1  0
 10 13  1  0
 11 12  1  0
 11 14  1  0
 13 14  1  0
  2 15  1  0
 13 16  2  0
 11 17  2  0
M  END
> <Library>
Bioactives

> <Batch>
2012

> <PLATE>
B1002L2012M01

> <WELL>
A21

> <EOS>
EOS100433

> <CCMF_source_vial_barcode>
LV2001695685

> <concentration_mM>
10

> <volume_ul>
30

$$$$
EOS100434
  SciTegic04282016392D

 32 34  0  0  0  0            999 V2000
    2.6098   -2.7170    0.0000 C   0  0
    3.3247   -3.1295    0.0000 C   0  0
    2.6098   -1.8920    0.0000 C   0  0
    6.1820    0.9983    0.0000 C   0  0
    3.3247   -0.6545    0.0000 C   0  0
    4.0370   -2.7170    0.0000 N   0  0
    3.3247   -1.4795    0.0000 N   0  0
    4.7520   -3.1267    0.0000 C   0  0
    4.7520   -3.9517    0.0000 N   0  0
    5.4643    0.5858    0.0000 C   0  0
    6.1820    1.8287    0.0000 N   0  0
    4.0370   -0.2393    0.0000 C   0  0
    1.8920   -3.1295    0.0000 C   0  0
    6.8970    0.5858    0.0000 N   0  0
    3.3247   -3.9545    0.0000 O   0  0
    2.6098   -0.2420    0.0000 O   0  0
    1.8920   -1.4795    0.0000 C   0  0
    4.7520    0.9955    0.0000 C   0  0
    5.4643   -0.2393    0.0000 C   0  0
    4.0370    0.5858    0.0000 C   0  0
    4.7520   -0.6518    0.0000 C   0  0
    5.4643   -4.3642    0.0000 C   0  0
    1.1797   -2.7170    0.0000 C   0  0
    6.1820   -3.9517    0.0000 C   0  0
    5.4643   -2.7142    0.0000 C   0  0
    1.1797   -1.8920    0.0000 C   0  0
    6.8970   -4.3642    0.0000 Cl  0  0
    6.1820   -3.1267    0.0000 C   0  0
    0.4648   -3.1295    0.0000 O   0  0
    7.6093    0.9983    0.0000 C   0  0
    6.8970   -0.2393    0.0000 C   0  0
   -0.2475   -2.7170    0.0000 C   0  0
  2  1  1  0
  3  1  2  0
  4 10  1  0
  5  7  1  0
  6  2  1  0
  7  3  1  0
  8  6  1  0
  9  8  2  0
 10 19  2  0
 11  4  2  0
 12  5  1  0
 13  1  1  0
 14  4  1  0
 15  2  2  0
 16  5  2  0
 17  3  1  0
 18 20  2  0
 19 21  1  0
 20 12  1  0
 21 12  2  0
 22  9  1  0
 23 13  2  0
 24 28  1  0
 25  8  1  0
 26 23  1  0
 27 24  1  0
 28 25  2  0
 29 23  1  0
 30 14  1  0
 31 14  1  0
 32 29  1  0
 17 26  2  0
 18 10  1  0
 22 24  2  0
M  END
> <Library>
Bioactives

> <Batch>
2012

> <PLATE>
B1002L2012M01

> <WELL>
C21

> <EOS>
EOS100434

> <CCMF_source_vial_barcode>
LV2001695669

> <concentration_mM>
10

> <volume_ul>
30

$$$$
EOS100435
  SciTegic04282016392D

 31 36  0  0  0  0            999 V2000
    4.2769    3.4311    0.0000 C   0  0
    4.2769    2.6061    0.0000 C   0  0
    4.9914    2.1936    0.0000 N   0  0
    5.7059    2.6061    0.0000 C   0  0
    5.7059    3.4311    0.0000 N   0  0
    4.9914    3.8436    0.0000 C   0  0
    6.4905    2.3511    0.0000 C   0  0
    6.9754    3.0186    0.0000 C   0  0
    6.4905    3.6860    0.0000 N   0  0
    3.5649    3.8421    0.0000 C   0  0
    6.7446    1.5693    0.0000 C   0  0
    6.1925    0.9562    0.0000 C   0  0
    6.4474    0.1715    0.0000 C   0  0
    7.2544    0.0000    0.0000 C   0  0
    7.8065    0.6131    0.0000 C   0  0
    7.5515    1.3977    0.0000 C   0  0
    8.6134    0.4416    0.0000 N   0  0
    9.1655    1.0546    0.0000 C   0  0
    8.9105    1.8393    0.0000 C   0  0
    8.1035    2.0108    0.0000 C   0  0
    3.5649    4.6671    0.0000 C   0  0
    2.8504    5.0796    0.0000 C   0  0
    2.1360    4.6671    0.0000 C   0  0
    2.1360    3.8421    0.0000 C   0  0
    2.8504    3.4296    0.0000 C   0  0
    1.4240    5.0782    0.0000 N   0  0
    1.4240    5.9003    0.0000 C   0  0
    0.7120    6.3114    0.0000 C   0  0
    0.0000    5.9003    0.0000 N   0  0
    0.0000    5.0782    0.0000 C   0  0
    0.7120    4.6671    0.0000 C   0  0
  1  2  1  0
  2  3  2  0
  3  4  1  0
  4  5  1  0
  5  6  1  0
  6  1  2  0
  4  7  2  0
  7  8  1  0
  8  9  2  0
  9  5  1  0
  1 10  1  0
  7 11  1  0
 11 12  1  0
 12 13  2  0
 13 14  1  0
 14 15  2  0
 15 16  1  0
 16 11  2  0
 15 17  1  0
 17 18  2  0
 18 19  1  0
 19 20  2  0
 20 16  1  0
 10 21  2  0
 21 22  1  0
 22 23  2  0
 23 24  1  0
 24 25  2  0
 25 10  1  0
 23 26  1  0
 26 27  1  0
 27 28  1  0
 28 29  1  0
 29 30  1  0
 30 31  1  0
 31 26  1  0
M  END
> <Library>
Bioactives

> <Batch>
2012

> <PLATE>
B1002L2012M01

> <WELL>
E21

> <EOS>
EOS100435

> <CCMF_source_vial_barcode>
LV2001695656

> <concentration_mM>
10

> <volume_ul>
30

$$$$
EOS100436
  SciTegic04282016392D

 33 36  0  0  0  0            999 V2000
    2.1375   -4.4208    0.0000 N   0  0
    2.9208   -4.1458    0.0000 C   0  0
    2.9000   -3.3208    0.0000 C   0  0
    1.6333   -3.7625    0.0000 N   0  0
    1.1958   -7.5792    0.0000 S   0  0
    1.9042   -5.2083    0.0000 C   0  0
    3.6042   -2.9042    0.0000 C   0  0
    6.4375   -0.3875    0.0000 C   0  0
    2.1083   -3.0792    0.0000 C   0  0
    5.7292   -0.8083    0.0000 N   0  0
    1.1000   -5.4000    0.0000 C   0  0
    3.6333   -4.5500    0.0000 N   0  0
    1.4292   -6.7875    0.0000 C   0  0
    4.3292   -3.3042    0.0000 N   0  0
    0.8625   -6.1875    0.0000 C   0  0
    2.4667   -5.8042    0.0000 C   0  0
    6.4292    0.4375    0.0000 O   0  0
    3.6042   -2.0750    0.0000 O   0  0
    4.3417   -4.1250    0.0000 C   0  0
    0.4042   -7.3417    0.0000 O   0  0
    1.9833   -7.8208    0.0000 O   0  0
    7.1583   -0.7917    0.0000 O   0  0
    5.0125   -0.4042    0.0000 C   0  0
    5.7417   -1.6292    0.0000 C   0  0
    2.2375   -6.5958    0.0000 C   0  0
    5.0292   -2.0500    0.0000 C   0  0
    4.3042   -0.8250    0.0000 C   0  0
    4.3083   -1.6500    0.0000 C   0  0
    0.5333   -4.7958    0.0000 F   0  0
    0.9625   -8.3708    0.0000 C   0  0
    7.1375    0.8583    0.0000 C   0  0
    7.8583    0.4542    0.0000 C   0  0
    7.1292    1.6833    0.0000 C   0  0
  2  1  1  0
  3  2  1  0
  4  1  1  0
  5 13  1  0
  6  1  1  0
  7  3  2  0
  8 10  1  0
  9  4  2  0
 10 23  1  0
 11  6  2  0
 12  2  2  0
 13 25  1  0
 14  7  1  0
 15 11  1  0
 16  6  1  0
 17  8  1  0
 18  7  1  0
 19 12  1  0
 20  5  2  0
 21  5  2  0
 22  8  2  0
 23 27  1  0
 24 26  1  0
 25 16  2  0
 26 28  1  0
 27 28  1  0
 28 18  1  0
 29 11  1  0
 30  5  1  0
 31 17  1  0
 32 31  1  0
 33 31  1  0
  3  9  1  0
 13 15  2  0
 19 14  2  0
 10 24  1  0
M  END
> <Library>
Bioactives

> <Batch>
2012

> <PLATE>
B1002L2012M01

> <WELL>
G21

> <EOS>
EOS100436

> <CCMF_source_vial_barcode>
LV2001695668

> <concentration_mM>
10

> <volume_ul>
30

$$$$
EOS100437
  SciTegic04282016392D

 26 29  0  0  1  0            999 V2000
    3.2024    2.9770    0.0000 C   0  0
    2.8124    2.2499    0.0000 C   0  0
    1.9878    2.2242    0.0000 C   0  0
    1.5978    1.4972    0.0000 C   0  0
    0.7732    1.4714    0.0000 C   0  0
    0.2406    0.8414    0.0000 C   0  0
   -0.5232    1.1532    0.0000 C   0  0
   -0.4626    1.9760    0.0000 S   0  0
    0.3386    2.1727    0.0000 C   0  0
    0.7286    2.8997    0.0000 C   0  0
    1.5532    2.9254    0.0000 N   0  0
    0.2940    3.6009    0.0000 O   0  0
    2.0325    0.7959    0.0000 C   0  0
    1.6425    0.0689    0.0000 C   0  0
    2.0771   -0.6323    0.0000 C   0  0
    1.6871   -1.3593    0.0000 C   0  0
    0.8625   -1.3851    0.0000 C   0  0
    0.4725   -2.1121    0.0000 C   0  0  1  0  0  0
    0.9071   -2.8133    0.0000 C   0  0
   -0.3521   -2.1378    0.0000 C   0  0
   -0.7421   -2.8648    0.0000 N   0  0
    0.4279   -0.6838    0.0000 C   0  0
    0.8179    0.0432    0.0000 C   0  0
    2.8571    0.8217    0.0000 C   0  0
    3.2917    0.1205    0.0000 O   0  0
    3.2470    1.5487    0.0000 C   0  0
  1  2  1  0
  2  3  2  0
  3  4  1  0
  4  5  1  0
  5  6  1  0
  6  7  2  0
  7  8  1  0
  5  9  2  0
  8  9  1  0
  9 10  1  0
 10 11  1  0
  3 11  1  0
 10 12  2  0
  4 13  2  0
 13 14  1  0
 14 15  2  0
 15 16  1  0
 16 17  2  0
 18 17  1  0
 18 19  1  1
 18 20  1  0
 20 21  1  0
 17 22  1  0
 22 23  2  0
 14 23  1  0
 13 24  1  0
 24 25  1  0
 24 26  2  0
  2 26  1  0
M  END
> <Library>
Bioactives

> <Batch>
2012

> <PLATE>
B1002L2012M01

> <WELL>
I21

> <EOS>
EOS100437

> <CCMF_source_vial_barcode>
LV2001695691

> <concentration_mM>
10

> <volume_ul>
30

$$$$
EOS100438
  SciTegic04282016392D

 29 29  0  0  0  0            999 V2000
    4.1939    2.0202    0.0000 C   0  0
    5.0189    2.0202    0.0000 C   0  0
    5.4314    2.7346    0.0000 C   0  0
    5.0189    3.4491    0.0000 C   0  0
    4.1939    3.4491    0.0000 C   0  0
    3.7814    2.7346    0.0000 C   0  0
    6.2564    2.7346    0.0000 O   0  0
    6.6689    3.4491    0.0000 C   0  0
    7.4939    3.4491    0.0000 C   0  0
    7.9064    4.1636    0.0000 C   0  0
    8.7314    4.1636    0.0000 N   0  0
    3.7814    1.3057    0.0000 O   0  0
    4.1939    0.5912    0.0000 C   0  0
    5.4314    1.3057    0.0000 C   0  0
    5.0958    0.5520    0.0000 N   0  0
    5.7089    0.0000    0.0000 N   0  0
    6.4234    0.4125    0.0000 C   0  0
    6.2519    1.2195    0.0000 C   0  0
    7.1771    0.0770    0.0000 N   0  0
    7.8445    0.5619    0.0000 C   0  0
    8.5982    0.2263    0.0000 C   0  0
    9.2656    0.7112    0.0000 N   0  0
    9.1794    1.5317    0.0000 C   0  0
    8.4257    1.8673    0.0000 C   0  0
    7.7583    1.3823    0.0000 N   0  0
    9.8468    2.0167    0.0000 C   0  0
   10.5143    2.5016    0.0000 N   0  0
    5.7292   16.8327    0.0000 Cl  0  0
    0.0000   16.8327    0.0000 Cl  0  0
  1  2  2  0
  2  3  1  0
  3  4  2  0
  4  5  1  0
  5  6  2  0
  6  1  1  0
  3  7  1  0
  7  8  1  0
  8  9  1  0
  9 10  1  0
 10 11  1  0
  1 12  1  0
 12 13  1  0
  2 14  1  0
 14 15  1  0
 15 16  1  0
 16 17  2  0
 17 18  1  0
 18 14  2  0
 17 19  1  0
 19 20  1  0
 20 21  2  0
 21 22  1  0
 22 23  2  0
 23 24  1  0
 24 25  2  0
 25 20  1  0
 23 26  1  0
 26 27  3  0
M  END
> <Library>
Bioactives

> <Batch>
2012

> <PLATE>
B1002L2012M01

> <WELL>
K21

> <EOS>
EOS100438

> <CCMF_source_vial_barcode>
LV2001696292

> <concentration_mM>
10

> <volume_ul>
30

$$$$
EOS100439
  SciTegic04282016392D

 23 25  0  0  0  0            999 V2000
    1.4290    2.0625    0.0000 C   0  0
    1.4290    1.2375    0.0000 C   0  0
    2.1434    0.8250    0.0000 C   0  0
    2.8579    1.2375    0.0000 C   0  0
    2.8579    2.0625    0.0000 C   0  0
    2.1434    2.4750    0.0000 C   0  0
    0.7145    2.4750    0.0000 C   0  0
    0.0000    2.0625    0.0000 C   0  0
    0.0000    1.2375    0.0000 C   0  0
    0.7145    0.8250    0.0000 C   0  0
    3.5724    2.4750    0.0000 C   0  0
    3.5724    3.3000    0.0000 C   0  0
    2.8579    3.7125    0.0000 C   0  0
    2.1434    3.3000    0.0000 C   0  0
    3.5724    0.8250    0.0000 O   0  0
    2.1434    0.0000    0.0000 O   0  0
    4.2868    3.7125    0.0000 N   0  0
    5.0013    3.3000    0.0000 C   0  0
    5.7158    3.7125    0.0000 C   0  0
    5.0013    2.4750    0.0000 O   0  0
    6.4302    3.3000    0.0000 C   0  0
    5.7158    4.5375    0.0000 C   0  0
    6.4302    4.1250    0.0000 C   0  0
  1  2  2  0
  2  3  1  0
  3  4  1  0
  4  5  1  0
  5  6  2  0
  6  1  1  0
  1  7  1  0
  7  8  2  0
  8  9  1  0
  9 10  2  0
 10  2  1  0
  5 11  1  0
 11 12  2  0
 12 13  1  0
 13 14  2  0
 14  6  1  0
  4 15  2  0
  3 16  2  0
 12 17  1  0
 17 18  1  0
 18 19  1  0
 18 20  2  0
 19 21  1  0
 19 22  1  0
 19 23  1  0
M  END
> <Library>
Bioactives

> <Batch>
2012

> <PLATE>
B1002L2012M01

> <WELL>
M21

> <EOS>
EOS100439

> <CCMF_source_vial_barcode>
LV2001695682

> <concentration_mM>
10

> <volume_ul>
30

$$$$
EOS100440
  SciTegic04282016392D

 21 23  0  0  0  0            999 V2000
    0.0000    0.8250    0.0000 O   0  0
    0.0000    0.0000    0.0000 C   0  0
   -0.7145   -0.4125    0.0000 C   0  0
   -0.7145   -1.2375    0.0000 C   0  0
   -1.5269   -1.0942    0.0000 C   0  0
   -0.9966   -2.0127    0.0000 C   0  0
    0.0000   -1.6500    0.0000 C   0  0
    0.7145   -1.2375    0.0000 C   0  0
    0.7145   -0.4125    0.0000 C   0  0
    1.4289    0.0000    0.0000 C   0  0
    1.4289    0.8250    0.0000 C   0  0
    0.7145    1.2375    0.0000 C   0  0
    0.7145    2.0625    0.0000 C   0  0
    1.4289    2.4750    0.0000 C   0  0
    2.1434    2.0625    0.0000 C   0  0
    2.8579    2.4750    0.0000 O   0  0
    2.1434    1.2375    0.0000 C   0  0
    2.1434   -0.4125    0.0000 N   0  0
    2.1434   -1.2375    0.0000 C   0  0
    1.4289   -1.6500    0.0000 N   0  0
    2.8579   -1.6500    0.0000 S   0  0
  1  2  2  0
  2  3  1  0
  3  4  1  0
  4  5  1  0
  4  6  1  0
  4  7  1  0
  7  8  1  0
  8  9  2  0
  2  9  1  0
  9 10  1  0
 10 11  1  0
 11 12  2  0
 12 13  1  0
 13 14  2  0
 14 15  1  0
 15 16  1  0
 15 17  2  0
 11 17  1  0
 10 18  1  0
 18 19  1  0
 19 20  1  0
  8 20  1  0
 19 21  2  0
M  END
> <Library>
Bioactives

> <Batch>
2012

> <PLATE>
B1002L2012M01

> <WELL>
O21

> <EOS>
EOS100440

> <CCMF_source_vial_barcode>
LV2001695681

> <concentration_mM>
10

> <volume_ul>
30

$$$$
EOS100441
  SciTegic04282016392D

 33 38  0  0  0  0            999 V2000
    0.9978    0.7891    0.0000 C   0  0
   -0.0879    0.0035    0.0000 C   0  0
    0.1704    0.7822    0.0000 C   0  0
    0.5807   -0.4825    0.0000 N   0  0
    0.9978    2.2264    0.0000 N   0  0
    1.4078    1.5026    0.0000 C   0  0
    0.1567    2.2195    0.0000 C   0  0
   -0.2567    1.5026    0.0000 N   0  0
    1.2458    0.0035    0.0000 C   0  0
   -0.8427   -0.3275    0.0000 C   0  0
   -0.9357   -1.1546    0.0000 N   0  0
   -1.6629   -0.3239    0.0000 C   0  0
    0.4979   -1.3097    0.0000 C   0  0
   -0.2567   -1.6405    0.0000 C   0  0
   -2.1490   -0.9789    0.0000 O   0  0
   -2.1350    0.3550    0.0000 C   0  0
   -2.9312   -0.7169    0.0000 C   0  0
   -0.2636    2.9399    0.0000 O   0  0
    2.2385    1.5026    0.0000 O   0  0
   -2.9209    0.1104    0.0000 C   0  0
    2.0317   -0.2551    0.0000 C   0  0
    1.4078    2.9502    0.0000 C   0  0
   -1.0908    1.4923    0.0000 C   0  0
    1.1632   -1.7957    0.0000 C   0  0
   -0.3498   -2.4641    0.0000 C   0  0
   -3.6034   -1.1925    0.0000 C   0  0
    2.2040   -1.0684    0.0000 C   0  0
    2.6417    0.2965    0.0000 C   0  0
    1.0770   -2.6125    0.0000 C   0  0
    0.3153   -2.9502    0.0000 C   0  0
    3.4276    0.0448    0.0000 C   0  0
    2.9899   -1.3201    0.0000 C   0  0
    3.6034   -0.7685    0.0000 C   0  0
  2  3  2  0
  3  1  1  0
  4  9  1  0
  5  6  1  0
  6  1  1  0
  7  5  1  0
  8  3  1  0
  9  1  2  0
 10  2  1  0
 11 10  1  0
 12 10  1  0
 13  4  1  0
 14 13  2  0
 15 12  1  0
 16 12  2  0
 17 15  1  0
 18  7  2  0
 19  6  2  0
 20 16  1  0
 21  9  1  0
 22  5  1  0
 23  8  1  0
 24 13  1  0
 25 14  1  0
 26 17  1  0
 27 21  2  0
 28 21  1  0
 29 24  2  0
 30 29  1  0
 31 28  2  0
 32 27  1  0
 33 31  1  0
  4  2  1  0
  8  7  1  0
 11 14  1  0
 32 33  2  0
 25 30  2  0
 20 17  2  0
M  END
> <Library>
Bioactives

> <Batch>
2012

> <PLATE>
B1002L2012M01

> <WELL>
A2

> <EOS>
EOS100441

> <CCMF_source_vial_barcode>
LV2001696306

> <concentration_mM>
10

> <volume_ul>
30

$$$$
EOS100442
  SciTegic04282016392D

 33 37  0  0  0  0            999 V2000
    0.9393   -1.1026    0.0000 C   0  0
    0.9393   -1.9274    0.0000 C   0  0
    1.6554   -2.3398    0.0000 C   0  0
    2.3713   -1.9274    0.0000 C   0  0
    2.3713   -1.1026    0.0000 C   0  0
    1.6554   -0.6902    0.0000 C   0  0
    3.1503   -2.1794    0.0000 N   0  0
    3.6371   -1.5150    0.0000 C   0  0
    3.1503   -0.8449    0.0000 C   0  0
    0.2291   -0.6902    0.0000 Cl  0  0
    4.4619   -1.5150    0.0000 O   0  0
    3.4080   -0.0659    0.0000 C   0  0
    2.8582    0.5470    0.0000 C   0  0
    3.0300    1.3546    0.0000 C   0  0
    2.3139    1.7670    0.0000 C   0  0
    1.7012    1.2115    0.0000 C   0  0
    2.0390    0.4611    0.0000 O   0  0
    0.8993    1.3834    0.0000 C   0  0
    0.6415    2.1680    0.0000 C   0  0
   -0.1661    2.3398    0.0000 C   0  0
   -0.7159    1.7270    0.0000 C   0  0
   -0.4640    0.9422    0.0000 C   0  0
    0.3437    0.7703    0.0000 C   0  0
   -1.0138    0.3293    0.0000 C   0  0
   -0.7560   -0.4497    0.0000 O   0  0
   -1.8156    0.5012    0.0000 N   0  0
   -2.0276    1.2974    0.0000 C   0  0
   -2.7895    1.6295    0.0000 C   0  0
   -3.5168    1.2401    0.0000 C   0  0
   -3.6658    0.4325    0.0000 N   0  0
   -3.1273   -0.1920    0.0000 C   0  0
   -2.3025   -0.1920    0.0000 C   0  0
   -4.4619    0.2148    0.0000 C   0  0
  1  2  2  0
  2  3  1  0
  3  4  2  0
  4  5  1  0
  5  6  2  0
  6  1  1  0
  4  7  1  0
  7  8  1  0
  8  9  1  0
  9  5  1  0
  1 10  1  0
  8 11  2  0
  9 12  2  0
 12 13  1  0
 13 14  2  0
 14 15  1  0
 15 16  2  0
 16 17  1  0
 17 13  1  0
 16 18  1  0
 18 19  2  0
 19 20  1  0
 20 21  2  0
 21 22  1  0
 22 23  2  0
 23 18  1  0
 22 24  1  0
 24 25  2  0
 24 26  1  0
 26 27  1  0
 27 28  1  0
 28 29  1  0
 29 30  1  0
 30 31  1  0
 31 32  1  0
 32 26  1  0
 30 33  1  0
M  END
> <Library>
Bioactives

> <Batch>
2012

> <PLATE>
B1002L2012M01

> <WELL>
C2

> <EOS>
EOS100442

> <CCMF_source_vial_barcode>
LV2001696591

> <concentration_mM>
10

> <volume_ul>
30

$$$$
EOS100443
  SciTegic04282016392D

 31 34  0  0  0  0            999 V2000
   -1.5269    4.3942    0.0000 O   0  0
   -0.7145    4.5375    0.0000 S   0  0
    0.0000    4.9500    0.0000 C   0  0
    0.7145    4.5375    0.0000 C   0  0
    0.7145    3.7125    0.0000 N   0  0
    1.4289    3.3000    0.0000 C   0  0
    1.4289    2.4750    0.0000 C   0  0
    2.1434    2.0625    0.0000 C   0  0
    2.1434    1.2375    0.0000 C   0  0
    1.4289    0.8250    0.0000 C   0  0
    1.4289    0.0000    0.0000 O   0  0
    0.7145   -0.4125    0.0000 C   0  0
    0.7145   -1.2375    0.0000 C   0  0
    1.3819   -1.7224    0.0000 C   0  0
    2.1665   -1.4675    0.0000 C   0  0
    1.1270   -2.5070    0.0000 O   0  0
    0.3020   -2.5070    0.0000 N   0  0
    0.0470   -1.7224    0.0000 C   0  0
   -0.7376   -1.4675    0.0000 C   0  0
   -1.3507   -2.0195    0.0000 C   0  0
   -2.1353   -1.7646    0.0000 C   0  0
   -2.3068   -0.9576    0.0000 C   0  0
   -3.0915   -0.7027    0.0000 F   0  0
   -1.6937   -0.4056    0.0000 C   0  0
   -0.9091   -0.6605    0.0000 C   0  0
    0.7145    1.2375    0.0000 N   0  0
    0.7145    2.0625    0.0000 C   0  0
    2.1434    3.7125    0.0000 O   0  0
    0.0000    3.3000    0.0000 C   0  0
   -0.7145    3.7125    0.0000 C   0  0
   -0.9966    5.3127    0.0000 O   0  0
  1  2  2  0
  2  3  1  0
  3  4  1  0
  4  5  1  0
  5  6  1  0
  6  7  1  0
  7  8  2  0
  8  9  1  0
  9 10  2  0
 10 11  1  0
 11 12  1  0
 12 13  1  0
 13 14  2  0
 14 15  1  0
 14 16  1  0
 16 17  1  0
 17 18  2  0
 13 18  1  0
 18 19  1  0
 19 20  2  0
 20 21  1  0
 21 22  2  0
 22 23  1  0
 22 24  1  0
 24 25  2  0
 19 25  1  0
 10 26  1  0
 26 27  2  0
  7 27  1  0
  6 28  2  0
  5 29  1  0
 29 30  1  0
  2 30  1  0
  2 31  2  0
M  END
> <Library>
Bioactives

> <Batch>
2012

> <PLATE>
B1002L2012M01

> <WELL>
E2

> <EOS>
EOS100443

> <CCMF_source_vial_barcode>
LV2001695738

> <concentration_mM>
10

> <volume_ul>
30

$$$$
EOS100444
  SciTegic04282016392D

 27 29  0  0  0  0            999 V2000
    6.4695    1.2375    0.0000 C   0  0
    6.4695    0.4125    0.0000 C   0  0
    7.1840    0.0000    0.0000 C   0  0
    7.8985    0.4125    0.0000 C   0  0
    7.8985    1.2375    0.0000 C   0  0
    7.1840    1.6500    0.0000 C   0  0
    8.6129    1.6500    0.0000 F   0  0
    5.7551    1.6500    0.0000 C   0  0
    5.0406    1.2375    0.0000 C   0  0  2  0  0  0
    4.3261    1.6500    0.0000 N   0  0
    5.0406    0.4125    0.0000 C   0  0
    5.7551    0.0000    0.0000 N   0  0
    3.6117    1.2375    0.0000 C   0  0
    3.6117    0.4125    0.0000 O   0  0
    1.7986    2.4195    0.0000 C   0  0
    1.5511    1.6325    0.0000 C   0  0
    2.2232    1.1540    0.0000 S   0  0
    2.8860    1.6452    0.0000 C   0  0
    2.6235    2.4274    0.0000 C   0  0
    0.7690    1.3701    0.0000 Cl  0  0
    1.3073    3.0823    0.0000 C   0  0
    1.5546    3.8694    0.0000 C   0  0
    0.8825    4.3478    0.0000 C   0  0
    0.2198    3.8694    0.0000 N   0  0
    0.4823    3.0823    0.0000 N   0  0
    2.3368    4.1318    0.0000 Cl  0  0
    0.0000    2.4129    0.0000 C   0  0
  1  2  2  0
  2  3  1  0
  3  4  2  0
  4  5  1  0
  5  6  2  0
  6  1  1  0
  5  7  1  0
  1  8  1  0
  9  8  1  0
  9 10  1  1
  9 11  1  0
 11 12  1  0
 10 13  1  0
 13 14  2  0
 15 16  2  0
 16 17  1  0
 17 18  1  0
 18 19  2  0
 19 15  1  0
 18 13  1  0
 16 20  1  0
 15 21  1  0
 21 22  2  0
 22 23  1  0
 23 24  2  0
 24 25  1  0
 25 21  1  0
 22 26  1  0
 25 27  1  0
M  END
> <Library>
Bioactives

> <Batch>
2012

> <PLATE>
B1002L2012M01

> <WELL>
G2

> <EOS>
EOS100444

> <CCMF_source_vial_barcode>
LV2001695739

> <concentration_mM>
10

> <volume_ul>
30

$$$$
EOS100445
  SciTegic04282016392D

 24 27  0  0  0  0            999 V2000
    0.0000   -2.4866    0.0000 C   0  0
    0.7142   -2.8996    0.0000 C   0  0
    1.4369   -2.4866    0.0000 C   0  0
    1.4369   -1.6606    0.0000 C   0  0
    0.7142   -1.2476    0.0000 C   0  0
    0.0000   -1.6606    0.0000 C   0  0
    2.1511   -2.8996    0.0000 C   0  0
    2.8652   -2.4866    0.0000 C   0  0
    2.8652   -1.6606    0.0000 C   0  0
    2.1511   -1.2476    0.0000 C   0  0
    3.5879   -1.2476    0.0000 C   0  0
    4.3021   -1.6606    0.0000 N   0  0
    5.0162   -1.2476    0.0000 C   0  0
    5.0162   -0.4130    0.0000 N   0  0
    4.3021    0.0000    0.0000 C   0  0
    3.5879   -0.4130    0.0000 C   0  0
    5.7390   -1.6606    0.0000 N   0  0
    5.7390   -2.4866    0.0000 C   0  0
    6.4532   -2.8996    0.0000 C   0  0
    7.1673   -2.4866    0.0000 C   0  0
    7.1673   -1.6606    0.0000 C   0  0
    6.4532   -1.2476    0.0000 C   0  0
    7.8900   -2.8996    0.0000 C   0  0
    8.6042   -2.4866    0.0000 N   0  0
  1  2  1  0
  1  6  2  0
  2  3  2  0
  3  4  1  0
  3  7  1  0
  4  5  2  0
  4 10  1  0
  5  6  1  0
  7  8  2  0
  8  9  1  0
  9 10  2  0
  9 11  1  0
 11 12  2  0
 11 16  1  0
 12 13  1  0
 13 14  2  0
 13 17  1  0
 14 15  1  0
 15 16  2  0
 17 18  1  0
 17 22  1  0
 18 19  1  0
 19 20  1  0
 20 21  1  0
 20 23  1  0
 21 22  1  0
 23 24  1  0
M  END
> <Library>
Bioactives

> <Batch>
2012

> <PLATE>
B1002L2012M01

> <WELL>
I2

> <EOS>
EOS100445

> <CCMF_source_vial_barcode>
LV2001695696

> <concentration_mM>
10

> <volume_ul>
30

$$$$
EOS100446
  SciTegic04282016392D

 27 29  0  0  0  0            999 V2000
    7.6180    1.2375    0.0000 S   0  0
    7.0346    1.8209    0.0000 N   0  0
    6.2377    1.6073    0.0000 C   0  0
    5.5966    2.1265    0.0000 N   0  0
    8.3324    1.6500    0.0000 C   0  0
    3.4933    1.4536    0.0000 C   0  0
    2.7231    1.7493    0.0000 N   0  0
    4.9047    1.6772    0.0000 C   0  0
    9.0469    1.2375    0.0000 C   0  0
    4.1345    1.9729    0.0000 C   0  0
    5.9421    0.8372    0.0000 S   0  0
    5.1182    0.8803    0.0000 C   0  0
    6.9860    0.7072    0.0000 O   0  0
    8.0912    0.5617    0.0000 O   0  0
    1.1827    2.3406    0.0000 N   0  0
    9.7614    1.6500    0.0000 C   0  0
    3.6224    0.6388    0.0000 O   0  0
    2.0820    1.2301    0.0000 C   0  0
    2.5941    2.5642    0.0000 C   0  0
    1.3117    1.5258    0.0000 C   0  0
    1.8239    2.8598    0.0000 C   0  0
   10.4758    1.2375    0.0000 Cl  0  0
    8.3324    2.4750    0.0000 C   0  0
    9.0469    0.4125    0.0000 C   0  0
    0.4125    2.6363    0.0000 C   0  0
    9.0469    2.8875    0.0000 C   0  0
    9.7614    2.4750    0.0000 C   0  0
  2  1  1  0
  3  2  1  0
  4  3  2  0
  5  1  1  0
  6 10  1  0
  7  6  1  0
  8  4  1  0
  9  5  2  0
 10  8  1  0
 11  3  1  0
 12 11  1  0
 13  1  2  0
 14  1  2  0
 15 21  1  0
 16  9  1  0
 17  6  2  0
 18  7  1  0
 19  7  1  0
 20 18  1  0
 21 19  1  0
 22 16  1  0
 23  5  1  0
 24  9  1  0
 25 15  1  0
 26 23  2  0
 27 26  1  0
 16 27  2  0
 12  8  2  0
 15 20  1  0
M  END
> <Library>
Bioactives

> <Batch>
2012

> <PLATE>
B1002L2012M01

> <WELL>
K2

> <EOS>
EOS100446

> <CCMF_source_vial_barcode>
LV2001695711

> <concentration_mM>
10

> <volume_ul>
30

$$$$
EOS100447
  SciTegic04282016392D

 29 33  0  0  0  0            999 V2000
    1.8242    3.9840    0.0000 C   0  0
    1.8242    3.1590    0.0000 C   0  0
    2.5386    2.7465    0.0000 C   0  0
    3.2532    3.1590    0.0000 C   0  0
    3.2532    3.9840    0.0000 C   0  0
    2.5386    4.3965    0.0000 C   0  0
    1.0396    4.2390    0.0000 N   0  0
    0.5546    3.5715    0.0000 N   0  0
    1.0396    2.9041    0.0000 C   0  0
    0.7846    2.1195    0.0000 C   0  0
    0.7846    5.0236    0.0000 C   0  0
    3.9676    2.7465    0.0000 C   0  0
    3.9676    1.9215    0.0000 C   0  0
    4.6821    1.5090    0.0000 C   0  0
    5.3966    1.9215    0.0000 C   0  0
    5.3966    2.7465    0.0000 C   0  0
    4.6821    3.1590    0.0000 C   0  0
    6.1645    3.0480    0.0000 N   0  0
    6.4077    3.8363    0.0000 C   0  0
    5.9429    4.5179    0.0000 C   0  0
    5.1202    4.5796    0.0000 C   0  0  2  0  0  0
    4.5591    3.9749    0.0000 N   0  0
    4.8188    5.3476    0.0000 C   0  0
    7.2235    3.9593    0.0000 O   0  0
    0.0000    1.8646    0.0000 C   0  0
    0.0000    1.0396    0.0000 N   0  0
    0.7846    0.7846    0.0000 N   0  0
    1.2696    1.4521    0.0000 C   0  0
    1.0396    0.0000    0.0000 C   0  0
  1  2  1  0
  2  3  2  0
  3  4  1  0
  4  5  2  0
  5  6  1  0
  6  1  2  0
  1  7  1  0
  7  8  1  0
  8  9  2  0
  9  2  1  0
  9 10  1  0
  7 11  1  0
  4 12  1  0
 12 13  2  0
 13 14  1  0
 14 15  2  0
 15 16  1  0
 16 17  2  0
 17 12  1  0
 16 18  1  0
 18 19  1  0
 19 20  1  0
 21 20  1  0
 21 22  1  0
 22 17  1  0
 21 23  1  6
 19 24  2  0
 10 25  1  0
 25 26  2  0
 26 27  1  0
 27 28  1  0
 28 10  2  0
 27 29  1  0
M  END
> <Library>
Bioactives

> <Batch>
2012

> <PLATE>
B1002L2012M01

> <WELL>
M2

> <EOS>
EOS100447

> <CCMF_source_vial_barcode>
LV2001695127

> <concentration_mM>
10

> <volume_ul>
30

$$$$
EOS100448
  SciTegic04282016392D

 25 28  0  0  0  0            999 V2000
    3.5724    2.6492    0.0000 C   0  0
    3.5724    1.8242    0.0000 C   0  0
    4.2868    1.4117    0.0000 C   0  0
    5.0013    1.8242    0.0000 N   0  0
    5.0013    2.6492    0.0000 C   0  0
    4.2868    3.0617    0.0000 C   0  0
    5.7859    1.5693    0.0000 C   0  0
    6.2708    2.2367    0.0000 N   0  0
    5.7859    2.9041    0.0000 C   0  0
    5.2339    0.9562    0.0000 C   0  0
    5.4888    0.1715    0.0000 C   0  0
    6.2958    0.0000    0.0000 C   0  0
    6.8479    0.6131    0.0000 C   0  0
    6.5929    1.3977    0.0000 C   0  0
    2.8579    1.4117    0.0000 N   0  0
    2.1434    1.8242    0.0000 C   0  0
    2.1434    2.6492    0.0000 N   0  0
    1.4290    3.0617    0.0000 C   0  0
    0.7145    2.6492    0.0000 N   0  0
    0.7145    1.8242    0.0000 C   0  0
    1.4290    1.4117    0.0000 C   0  0
    0.0000    1.4117    0.0000 N   0  0
    4.2868    0.5867    0.0000 O   0  0
    6.0409    3.6888    0.0000 O   0  0
    4.2868    3.8867    0.0000 C   0  0
  1  2  2  0
  2  3  1  0
  3  4  1  0
  4  5  1  0
  5  6  2  0
  6  1  1  0
  4  7  1  0
  7  8  1  0
  8  9  1  0
  9  5  1  0
  7 10  1  0
 10 11  1  0
 11 12  1  0
 12 13  1  0
 13 14  1  0
 14  7  1  0
  2 15  1  0
 15 16  1  0
 16 17  2  0
 17 18  1  0
 18 19  2  0
 19 20  1  0
 20 21  2  0
 21 16  1  0
 20 22  1  0
  3 23  2  0
  9 24  2  0
  6 25  1  0
M  END
> <Library>
Bioactives

> <Batch>
2012

> <PLATE>
B1002L2012M01

> <WELL>
O2

> <EOS>
EOS100448

> <CCMF_source_vial_barcode>
LV2001695727

> <concentration_mM>
10

> <volume_ul>
30

$$$$
EOS100449
  SciTegic04282016392D

 35 37  0  0  0  0            999 V2000
    6.4294    1.5383    0.0000 S   0  0
    6.4294    2.3633    0.0000 O   0  0
    7.2544    1.5383    0.0000 O   0  0
    5.6044    1.5383    0.0000 C   0  0
    6.4294    0.7133    0.0000 O   0  0
    0.0000    3.7125    0.0000 C   0  0
    0.0000    2.8875    0.0000 C   0  0
    0.7145    2.4750    0.0000 N   0  0
    1.4290    2.8875    0.0000 C   0  0
    1.4290    3.7125    0.0000 C   0  0
    0.7145    4.1250    0.0000 C   0  0
    2.1434    2.4750    0.0000 N   0  0
    2.8579    3.7125    0.0000 N   0  0
    2.1434    4.1250    0.0000 C   0  0
    2.1434    4.9471    0.0000 O   0  0
    3.5724    4.1250    0.0000 C   0  0
    4.2868    3.7125    0.0000 C   0  0
    5.0013    4.1250    0.0000 C   0  0
    5.0013    4.9500    0.0000 C   0  0
    4.2868    5.3625    0.0000 C   0  0
    3.5724    4.9500    0.0000 C   0  0
    5.7158    5.3625    0.0000 C   0  0
    2.1434    1.6500    0.0000 C   0  0
    6.4694    5.0270    0.0000 C   0  0
    7.0215    5.6401    0.0000 C   0  0
    6.6090    6.3545    0.0000 C   0  0
    5.8020    6.1830    0.0000 C   0  0
    5.9293    4.5656    0.0000 C   0  0
    6.1429    3.7687    0.0000 N   0  0
    2.8579    1.2375    0.0000 C   0  0
    2.8579    0.4125    0.0000 C   0  0
    3.5724    0.0000    0.0000 C   0  0
    4.2868    0.4125    0.0000 N   0  0
    4.2868    1.2375    0.0000 C   0  0
    3.5724    1.6500    0.0000 C   0  0
  1  2  2  0
  1  3  1  0
  1  4  1  0
  1  5  2  0
  6  7  2  0
  7  8  1  0
  8  9  2  0
  9 10  1  0
 10 11  2  0
 11  6  1  0
  9 12  1  0
 13 14  1  0
 14 10  1  0
 14 15  2  0
 13 16  1  0
 16 17  2  0
 17 18  1  0
 18 19  2  0
 19 20  1  0
 20 21  2  0
 21 16  1  0
 19 22  1  0
 12 23  1  0
 22 24  1  0
 24 25  1  0
 25 26  1  0
 26 27  1  0
 27 22  1  0
 22 28  1  0
 28 29  3  0
 23 30  1  0
 30 31  2  0
 31 32  1  0
 32 33  2  0
 33 34  1  0
 34 35  2  0
 35 30  1  0
M  END
> <Library>
Bioactives

> <Batch>
2012

> <PLATE>
B1002L2012M01

> <WELL>
A4

> <EOS>
EOS100449

> <CCMF_source_vial_barcode>
LV2001695134

> <concentration_mM>
10

> <volume_ul>
30

$$$$
EOS100450
  SciTegic04282016392D

 34 36  0  0  0  0            999 V2000
    1.4290    3.7097    0.0000 C   0  0
    1.4290    2.8847    0.0000 C   0  0
    2.1435    2.4722    0.0000 C   0  0
    2.8579    2.8847    0.0000 C   0  0
    2.8579    3.7097    0.0000 C   0  0
    2.1435    4.1222    0.0000 C   0  0
    0.7145    4.1222    0.0000 O   0  0
    0.7145    2.4722    0.0000 C   0  0
    2.1435    1.6471    0.0000 O   0  0
    3.5724    4.1222    0.0000 C   0  0
    0.0000    3.7097    0.0000 C   0  0
    1.4290    1.2346    0.0000 C   0  0
    4.2869    3.7097    0.0000 N   0  0
    3.5724    4.9472    0.0000 O   0  0
    5.0014    4.1222    0.0000 C   0  0
    5.7159    3.7097    0.0000 C   0  0
    6.4304    4.1222    0.0000 C   0  0
    7.1449    3.7097    0.0000 C   0  0
    4.2869    2.8847    0.0000 C   0  0
    5.0014    2.4722    0.0000 C   0  0
    5.0014    1.6471    0.0000 C   0  0
    5.7159    1.2346    0.0000 C   0  0
    6.4304    1.6471    0.0000 C   0  0
    6.4304    2.4722    0.0000 C   0  0
    5.7159    2.8847    0.0000 C   0  0
    7.1449    2.8847    0.0000 C   0  0
    7.8594    2.4722    0.0000 C   0  0
    8.5738    2.8847    0.0000 C   0  0
    8.5738    3.7097    0.0000 C   0  0
    7.8594    4.1222    0.0000 C   0  0
    7.1424    1.2361    0.0000 C   0  0
    7.1424    0.4111    0.0000 C   0  0
    7.8544    0.0000    0.0000 O   0  0
    6.4304    0.0000    0.0000 O   0  0
  1  2  2  0
  2  3  1  0
  3  4  2  0
  4  5  1  0
  5  6  2  0
  6  1  1  0
  1  7  1  0
  2  8  1  0
  3  9  1  0
  5 10  1  0
  7 11  1  0
  9 12  1  0
 10 13  1  0
 10 14  2  0
 13 15  1  0
 15 16  1  0
 16 17  1  0
 17 18  1  0
 13 19  1  0
 19 20  1  0
 20 21  2  0
 21 22  1  0
 22 23  2  0
 23 24  1  0
 24 25  2  0
 25 20  1  0
 18 26  2  0
 26 27  1  0
 27 28  2  0
 28 29  1  0
 29 30  2  0
 30 18  1  0
 23 31  1  0
 31 32  1  0
 32 33  1  0
 32 34  2  0
M  END
> <Library>
Bioactives

> <Batch>
2012

> <PLATE>
B1002L2012M01

> <WELL>
C4

> <EOS>
EOS100450

> <CCMF_source_vial_barcode>
LV2001695130

> <concentration_mM>
10

> <volume_ul>
30

$$$$
EOS100451
  SciTegic04282016392D

 34 37  0  0  0  0            999 V2000
    0.3512   -2.2849    0.0000 C   0  0
    1.0657   -2.6887    0.0000 C   0  0
    1.7803   -2.2849    0.0000 C   0  0
    2.4947   -2.6887    0.0000 N   0  0
    3.2093   -2.2849    0.0000 C   0  0
    3.9239   -2.6887    0.0000 C   0  0
    4.6384   -2.2849    0.0000 O   0  0
    0.3512   -1.4548    0.0000 N   0  0
   -0.3634   -1.0388    0.0000 C   0  0
   -0.3634   -0.2069    0.0000 C   0  0
    0.3512    0.2090    0.0000 C   0  0
    1.0636   -0.2069    0.0000 C   0  0
    1.0636   -1.0388    0.0000 C   0  0
    1.7782   -1.4509    0.0000 O   0  0
    1.7761    0.2090    0.0000 C   0  0
    1.7761    1.0388    0.0000 C   0  0
    1.0636    1.4548    0.0000 C   0  0
    0.3512    1.0388    0.0000 C   0  0
    1.0636    2.2768    0.0000 O   0  0
    1.7782    2.6887    0.0000 C   0  0
    2.4906    1.4509    0.0000 O   0  0
    3.2052    1.0388    0.0000 C   0  0
   -1.0758    0.2090    0.0000 C   0  0
   -1.7885   -0.2069    0.0000 C   0  0
   -1.7885   -1.0388    0.0000 C   0  0
   -2.5009   -1.4548    0.0000 C   0  0
   -3.2134   -1.0388    0.0000 C   0  0
   -3.2134   -0.2069    0.0000 C   0  0
   -2.5009    0.2090    0.0000 C   0  0
   -3.9259    0.2090    0.0000 O   0  0
   -4.6384   -0.2069    0.0000 C   0  0
   -4.6384   -1.0388    0.0000 O   0  0
   -1.0758    1.0309    0.0000 O   0  0
   -1.3028   -2.5706    0.0000 Cl  0  0
  1  2  1  0
  1  8  1  0
  2  3  1  0
  3  4  1  0
  4  5  1  0
  5  6  1  0
  6  7  1  0
  8  9  1  0
  8 13  1  0
  9 10  2  0
  9 25  1  0
 10 11  1  0
 10 23  1  0
 12 11  1  0
 11 18  2  0
 13 12  1  0
 12 15  2  0
 13 14  2  0
 15 16  1  0
 16 17  2  0
 16 21  1  0
 18 17  1  0
 17 19  1  0
 19 20  1  0
 21 22  1  0
 23 24  1  0
 23 33  2  0
 25 24  2  0
 24 29  1  0
 25 26  1  0
 26 27  2  0
 27 28  1  0
 27 32  1  0
 29 28  2  0
 28 30  1  0
 30 31  1  0
 32 31  1  0
M  END
> <Library>
Bioactives

> <Batch>
2012

> <PLATE>
B1002L2012M01

> <WELL>
E4

> <EOS>
EOS100451

> <CCMF_source_vial_barcode>
LV2001696340

> <concentration_mM>
10

> <volume_ul>
30

$$$$
EOS100452
  SciTegic04282016392D

 34 37  0  0  0  0            999 V2000
   -3.5768   -0.4442    0.0000 C   0  0
   -3.5768   -1.2693    0.0000 C   0  0
   -2.8425   -0.0135    0.0000 C   0  0
   -4.2749   -0.0135    0.0000 C   0  0
   -2.8425   -1.6865    0.0000 C   0  0
   -4.2749   -1.6865    0.0000 N   0  0
   -2.1307   -0.4442    0.0000 C   0  0
   -5.0003   -0.4442    0.0000 N   0  0
   -4.2749    0.7979    0.0000 O   0  0
   -2.1307   -1.2693    0.0000 C   0  0
   -5.0003   -1.2693    0.0000 C   0  0
   -1.4189   -0.0045    0.0000 C   0  0
   -1.4189   -1.6865    0.0000 Br  0  0
   -5.7120   -1.6865    0.0000 C   0  0
   -0.7072   -0.4079    0.0000 N   0  0
    0.0272   -0.0045    0.0000 C   0  0
   -0.7072   -1.2330    0.0000 C   0  0
    0.7390   -0.4079    0.0000 C   0  0
    0.0272    0.8114    0.0000 C   0  0
    0.0045   -1.6411    0.0000 C   0  0
    1.4506   -0.0045    0.0000 C   0  0
    0.7390    1.2286    0.0000 C   0  0
    0.8432   -2.1170    0.0000 C   0  0
    1.4506    0.8114    0.0000 C   0  0
    2.1398    1.2058    0.0000 C   0  0
    2.8515    0.8114    0.0000 N   0  0
    2.1398    2.0218    0.0000 O   0  0
    3.5632    1.2058    0.0000 C   0  0
    4.2886    0.8114    0.0000 C   0  0
    5.0003    1.2286    0.0000 C   0  0
    4.2886   -0.0045    0.0000 C   0  0
    5.7120    0.8114    0.0000 C   0  0
    5.0003   -0.4442    0.0000 N   0  0
    5.7120   -0.0045    0.0000 C   0  0
  1  2  1  0
  1  3  2  0
  1  4  1  0
  2  5  2  0
  2  6  1  0
  3  7  1  0
  4  8  1  0
  4  9  2  0
  5 10  1  0
  6 11  2  0
  7 12  1  0
 10 13  1  0
 11 14  1  0
 12 15  1  0
 15 16  1  0
 15 17  1  0
 16 18  2  0
 16 19  1  0
 17 20  1  0
 18 21  1  0
 19 22  2  0
 20 23  3  0
 21 24  2  0
 24 25  1  0
 25 26  1  0
 25 27  2  0
 26 28  1  0
 28 29  1  0
 29 30  2  0
 29 31  1  0
 30 32  1  0
 31 33  2  0
 32 34  2  0
  7 10  2  0
  8 11  1  0
 22 24  1  0
 33 34  1  0
M  END
> <Library>
Bioactives

> <Batch>
2012

> <PLATE>
B1002L2012M01

> <WELL>
G4

> <EOS>
EOS100452

> <CCMF_source_vial_barcode>
LV2001695139

> <concentration_mM>
10

> <volume_ul>
30

$$$$
EOS100453
  SciTegic04282016392D

 29 31  0  0  0  0            999 V2000
    5.7750    2.5559    0.0000 C   0  0
    7.0125    1.8415    0.0000 C   0  0
    5.7750    1.1270    0.0000 C   0  0
    6.6000    1.1270    0.0000 C   0  0
    6.6000    2.5560    0.0000 C   0  0
    5.3625    1.8415    0.0000 C   0  0
    7.8375    1.8415    0.0000 O   0  0
    5.3625    0.4125    0.0000 C   0  0
    7.0125    0.4125    0.0000 C   0  0
    8.2500    1.1270    0.0000 C   0  0
    7.8375    0.4125    0.0000 C   0  0
    3.3000    2.5559    0.0000 N   0  0
    2.8875    1.8415    0.0000 C   0  0
    4.1250    2.5559    0.0000 N   0  0
    4.5375    1.8415    0.0000 C   0  0
    2.0625    1.8415    0.0000 C   0  0
    2.8875    3.2704    0.0000 C   0  0
    1.6500    2.5559    0.0000 C   0  0
    1.6500    1.1270    0.0000 C   0  0
    3.3000    1.1270    0.0000 O   0  0
    4.1250    1.1270    0.0000 O   0  0
    0.8250    2.5559    0.0000 C   0  0
    0.8250    1.1269    0.0000 C   0  0
    0.4125    1.8415    0.0000 C   0  0
    3.4709    3.8537    0.0000 C   0  0
    2.3572    3.9024    0.0000 C   0  0
    2.2117    2.7972    0.0000 C   0  0
    0.4125    0.4125    0.0000 C   0  0
    0.4125    3.2704    0.0000 C   0  0
  6  1  2  0
  7  2  1  0
  8  3  1  0
  9  4  1  0
 10  7  1  0
 11  9  1  0
  2  4  1  0
 10 11  1  0
  2  5  2  0
  3  6  1  0
  4  3  2  0
  5  1  1  0
 13 12  1  0
 14 12  1  0
 15 14  1  0
 16 13  1  0
 17 12  1  0
 18 16  2  0
 19 16  1  0
 20 13  2  0
 21 15  2  0
 22 18  1  0
 23 19  2  0
 24 23  1  0
 25 17  1  0
 26 17  1  0
 27 17  1  0
 28 23  1  0
 29 22  1  0
 22 24  2  0
  6 15  1  0
M  END
> <Library>
Bioactives

> <Batch>
2012

> <PLATE>
B1002L2012M01

> <WELL>
I4

> <EOS>
EOS100453

> <CCMF_source_vial_barcode>
LV2001695140

> <concentration_mM>
10

> <volume_ul>
30

$$$$
EOS100454
  SciTegic04282016392D

 31 35  0  0  0  0            999 V2000
    4.4995   -0.4125    0.0000 C   0  0
    3.6745   -0.4125    0.0000 C   0  0
    3.2620   -1.1270    0.0000 C   0  0
    2.4370   -1.1270    0.0000 C   0  0
    2.0245   -0.4125    0.0000 C   0  0
    2.4370    0.3020    0.0000 C   0  0
    3.2620    0.3020    0.0000 C   0  0
    4.9120   -1.1270    0.0000 O   0  0
    4.9120    0.3020    0.0000 O   0  0
    3.6745   -1.8414    0.0000 C   0  0
    2.0245    1.0164    0.0000 O   0  0
    1.1995    1.0164    0.0000 C   0  0
    0.7145    0.3490    0.0000 N   0  0
   -0.0701    0.6039    0.0000 C   0  0
   -0.0701    1.4289    0.0000 C   0  0
    0.7145    1.6839    0.0000 N   0  0
   -0.7845    0.1914    0.0000 C   0  0
   -1.4990    0.6039    0.0000 C   0  0
   -1.4990    1.4289    0.0000 C   0  0
   -0.7845    1.8414    0.0000 C   0  0
   -4.4271   -0.8885    0.0000 N   0  0
   -4.9120   -0.2211    0.0000 C   0  0
   -4.4271    0.4464    0.0000 C   0  0
   -3.6424    0.1914    0.0000 C   0  0
   -2.9280    0.6039    0.0000 C   0  0
   -2.2135    0.1914    0.0000 C   0  0
   -2.2135   -0.6336    0.0000 C   0  0
   -2.9280   -1.0461    0.0000 C   0  0
   -3.6424   -0.6336    0.0000 C   0  0
   -4.6820   -1.6731    0.0000 C   0  0
   -2.2135    1.8414    0.0000 Cl  0  0
  1  2  1  0
  2  3  2  0
  3  4  1  0
  4  5  2  0
  5  6  1  0
  6  7  2  0
  2  7  1  0
  1  8  2  0
  1  9  1  0
  3 10  1  0
 12 13  1  0
 13 14  1  0
 14 15  1  0
 15 16  1  0
 12 16  2  0
 17 18  1  0
 18 19  2  0
 19 20  1  0
 15 20  2  0
 14 17  2  0
 21 22  1  0
 22 23  2  0
 23 24  1  0
 24 25  2  0
 25 26  1  0
 26 27  2  0
 27 28  1  0
 28 29  2  0
 21 29  1  0
 24 29  1  0
 21 30  1  0
 18 26  1  0
 19 31  1  0
 11 12  1  0
  6 11  1  0
M  END
> <Library>
Bioactives

> <Batch>
2012

> <PLATE>
B1002L2012M01

> <WELL>
K4

> <EOS>
EOS100454

> <CCMF_source_vial_barcode>
LV2001695154

> <concentration_mM>
10

> <volume_ul>
30

$$$$
EOS100455
  SciTegic04282016392D

 32 34  0  0  0  0            999 V2000
    5.9246   -3.2649    0.0000 C   0  0  1  0  0  0
    6.6477   -3.6963    0.0000 C   0  0
    7.3615   -3.2979    0.0000 C   0  0  2  0  0  0
    7.3736   -2.4561    0.0000 C   0  0
    6.6575   -2.0370    0.0000 C   0  0
    5.9366   -2.4475    0.0000 C   0  0
    5.2111   -3.6769    0.0000 C   0  0
    5.2111   -4.5008    0.0000 O   0  0
    4.4976   -3.2649    0.0000 N   0  0
    8.0751   -3.7098    0.0000 N   0  0
    8.7948   -2.4704    0.0000 N   0  0
    8.7886   -3.2979    0.0000 C   0  0
    9.5090   -3.7138    0.0000 N   0  0
   10.2256   -3.3107    0.0000 C   0  0
   10.2318   -2.4789    0.0000 N   0  0
    9.5237   -2.0598    0.0000 C   0  0
    9.5237   -1.2359    0.0000 N   0  0
   10.2372   -0.8239    0.0000 C   0  0
   10.9391   -3.7226    0.0000 C   0  0
    3.7840   -3.6769    0.0000 C   0  0
    3.0705   -3.2649    0.0000 C   0  0
    2.3548   -3.6770    0.0000 C   0  0
    1.6379   -3.2670    0.0000 C   0  0
    1.6349   -2.4327    0.0000 C   0  0
    2.3479   -2.0176    0.0000 C   0  0
    3.0692   -2.4275    0.0000 C   0  0
    2.3548   -4.5009    0.0000 C   0  0
    1.5309   -4.5009    0.0000 F   0  0
    3.1787   -4.5009    0.0000 F   0  0
    2.3548   -5.3248    0.0000 F   0  0
    0.9213   -2.0207    0.0000 C   0  0
    0.2078   -1.6087    0.0000 N   0  0
  1  2  1  0
  3  2  1  0
  3  4  1  0
  4  5  1  0
  5  6  1  0
  1  6  1  0
  7  8  2  0
  7  9  1  0
  1  7  1  6
 11 12  2  0
 12 13  1  0
 13 14  2  0
 14 15  1  0
 15 16  2  0
 11 16  1  0
 17 18  1  0
 16 17  1  0
 14 19  1  0
 10 12  1  0
  3 10  1  6
 21 22  2  0
 22 23  1  0
 23 24  2  0
 24 25  1  0
 25 26  2  0
 21 26  1  0
 22 27  1  0
 31 32  3  0
 24 31  1  0
 20 21  1  0
  9 20  1  0
 27 28  1  0
 27 29  1  0
 27 30  1  0
M  END
> <Library>
Bioactives

> <Batch>
2012

> <PLATE>
B1002L2012M01

> <WELL>
M4

> <EOS>
EOS100455

> <CCMF_source_vial_barcode>
LV2001696323

> <concentration_mM>
10

> <volume_ul>
30

$$$$
EOS100456
  SciTegic04282016392D

 25 26  0  0  0  0            999 V2000
    3.2330   -0.8827    0.0000 O   0  0
    2.8205   -1.5972    0.0000 S   0  0
    2.1060   -1.1847    0.0000 N   0  0
    1.3916   -1.5972    0.0000 C   0  0
    0.6771   -1.1847    0.0000 C   0  0
   -0.0374   -1.5972    0.0000 N   0  0
   -0.7518   -1.1847    0.0000 C   0  0
   -1.5055   -1.5202    0.0000 N   0  0
   -2.0575   -0.9071    0.0000 O   0  0
   -1.6450   -0.1927    0.0000 N   0  0
   -0.8381   -0.3642    0.0000 C   0  0
   -0.2250    0.1878    0.0000 C   0  0
   -0.3965    0.9948    0.0000 N   0  0
   -1.1811    1.2497    0.0000 C   0  0
   -1.3527    2.0567    0.0000 C   0  0
   -2.1373    2.3117    0.0000 C   0  0
   -2.7504    1.7596    0.0000 C   0  0
   -3.5350    2.0146    0.0000 F   0  0
   -2.5788    0.9526    0.0000 C   0  0
   -3.1919    0.4006    0.0000 Br  0  0
   -1.7942    0.6977    0.0000 C   0  0
    0.5596   -0.0671    0.0000 N   0  0
    1.1727    0.4849    0.0000 O   0  0
    3.5350   -2.0097    0.0000 N   0  0
    2.4080   -2.3117    0.0000 O   0  0
  1  2  2  0
  2  3  1  0
  3  4  1  0
  4  5  1  0
  5  6  1  0
  6  7  1  0
  7  8  2  0
  8  9  1  0
  9 10  1  0
 10 11  2  0
  7 11  1  0
 11 12  1  0
 12 13  1  0
 13 14  1  0
 14 15  2  0
 15 16  1  0
 16 17  2  0
 17 18  1  0
 17 19  1  0
 19 20  1  0
 19 21  2  0
 14 21  1  0
 12 22  2  0
 22 23  1  0
  2 24  1  0
  2 25  2  0
M  END
> <Library>
Bioactives

> <Batch>
2012

> <PLATE>
B1002L2012M01

> <WELL>
O4

> <EOS>
EOS100456

> <CCMF_source_vial_barcode>
LV2001695165

> <concentration_mM>
10

> <volume_ul>
30

$$$$
EOS100457
  SciTegic04282016392D

 41 45  0  0  1  0            999 V2000
   -3.7951    0.9434    0.0000 O   0  0
   -4.5096    0.5309    0.0000 C   0  0
   -5.2241    0.9434    0.0000 N   0  0
   -5.2241    1.7684    0.0000 C   0  0
   -4.5096   -0.2941    0.0000 C   0  0
   -5.2241   -0.7066    0.0000 C   0  0
   -5.2241   -1.5316    0.0000 C   0  0
   -4.5096   -1.9441    0.0000 C   0  0
   -3.7951   -1.5316    0.0000 C   0  0
   -3.7951   -0.7066    0.0000 C   0  0
   -3.0807   -0.2941    0.0000 N   0  0
   -2.3662   -0.7066    0.0000 C   0  0
   -1.6517   -0.2941    0.0000 N   0  0
   -0.9373   -0.7066    0.0000 C   0  0
   -0.2228   -0.2941    0.0000 N   0  0
    0.4917   -0.7066    0.0000 C   0  0
    1.2062   -0.2941    0.0000 C   0  0
    1.2062    0.5309    0.0000 O   0  0
    1.9206    0.9434    0.0000 C   0  0
    1.9206   -0.7066    0.0000 C   0  0
    2.5656   -0.1923    0.0000 C   0  0
    3.3700   -0.3758    0.0000 C   0  0
    3.7279   -1.1191    0.0000 C   0  0
    3.3700   -1.8624    0.0000 C   0  0  2  0  0  0
    3.8843   -2.5075    0.0000 N   0  0
    4.7001   -2.3845    0.0000 C   0  0
    5.2145   -3.0295    0.0000 C   0  0
    4.9131   -3.7975    0.0000 N   0  0
    5.4275   -4.4425    0.0000 C   0  0
    6.2433   -4.3195    0.0000 C   0  0
    6.5447   -3.5516    0.0000 O   0  0
    4.0973   -3.9204    0.0000 C   0  0
    3.5829   -3.2754    0.0000 C   0  0
    2.5656   -2.0460    0.0000 C   0  0
    1.9206   -1.5316    0.0000 C   0  0
    1.2062   -1.9441    0.0000 C   0  0
    0.4917   -1.5316    0.0000 C   0  0
   -0.9373   -1.5316    0.0000 N   0  0
   -1.6517   -1.9441    0.0000 C   0  0
   -2.3662   -1.5316    0.0000 C   0  0
   -3.0807   -1.9441    0.0000 Cl  0  0
  1  2  2  0
  2  3  1  0
  3  4  1  0
  2  5  1  0
  5  6  2  0
  6  7  1  0
  7  8  2  0
  8  9  1  0
  9 10  2  0
  5 10  1  0
 10 11  1  0
 11 12  1  0
 12 13  2  0
 13 14  1  0
 14 15  1  0
 15 16  1  0
 16 17  2  0
 17 18  1  0
 18 19  1  0
 17 20  1  0
 20 21  1  0
 21 22  1  0
 22 23  1  0
 24 23  1  0
 24 25  1  6
 25 26  1  0
 26 27  1  0
 27 28  1  0
 28 29  1  0
 29 30  1  0
 30 31  1  0
 28 32  1  0
 32 33  1  0
 25 33  1  0
 24 34  1  0
 20 35  2  0
 34 35  1  0
 35 36  1  0
 36 37  2  0
 16 37  1  0
 14 38  2  0
 38 39  1  0
 39 40  2  0
 12 40  1  0
 40 41  1  0
M  END
> <Library>
Bioactives

> <Batch>
2012

> <PLATE>
B1002L2012M01

> <WELL>
A6

> <EOS>
EOS100457

> <CCMF_source_vial_barcode>
LV2001696350

> <concentration_mM>
10

> <volume_ul>
30

$$$$
EOS100458
  SciTegic04282016392D

 20 22  0  0  0  0            999 V2000
    1.4289    2.2687    0.0000 O   0  0
    1.4289    1.4437    0.0000 C   0  0
    0.7145    1.0312    0.0000 C   0  0
    0.7145    0.2062    0.0000 C   0  0
    0.0000   -0.2062    0.0000 N   0  0
   -0.7145    0.2062    0.0000 C   0  0
   -1.4289   -0.2062    0.0000 N   0  0
   -2.1434    0.2062    0.0000 C   0  0
   -2.1434   -0.6187    0.0000 C   0  0
   -2.8579   -1.0312    0.0000 C   0  0
   -2.8579   -1.8562    0.0000 C   0  0
   -2.1434   -2.2687    0.0000 C   0  0
   -1.4289   -1.8562    0.0000 C   0  0
   -1.4289   -1.0312    0.0000 C   0  0
   -2.8579    0.6187    0.0000 C   0  0
   -2.1434    1.0312    0.0000 C   0  0
   -0.7145    1.0312    0.0000 N   0  0
    0.0000    1.4437    0.0000 C   0  0
    2.1434    1.0312    0.0000 N   0  0
    2.8579    1.4437    0.0000 O   0  0
  1  2  2  0
  2  3  1  0
  3  4  2  0
  4  5  1  0
  5  6  2  0
  6  7  1  0
  7  8  1  0
  8  9  1  0
  9 10  2  0
 10 11  1  0
 11 12  2  0
 12 13  1  0
 13 14  2  0
  9 14  1  0
  8 15  1  0
 15 16  1  0
  8 16  1  0
  6 17  1  0
 17 18  2  0
  3 18  1  0
  2 19  1  0
 19 20  1  0
M  END
> <Library>
Bioactives

> <Batch>
2012

> <PLATE>
B1002L2012M01

> <WELL>
C6

> <EOS>
EOS100458

> <CCMF_source_vial_barcode>
LV2001696336

> <concentration_mM>
10

> <volume_ul>
30

$$$$
EOS100459
  SciTegic04282016392D

 44 47  0  0  0  0            999 V2000
   -2.4762   -3.3000    0.0000 C   0  0
   -1.7617   -2.8875    0.0000 C   0  0
   -1.7617   -2.0625    0.0000 C   0  0
   -1.0473   -1.6500    0.0000 N   0  0
   -1.0473   -0.8250    0.0000 C   0  0
   -1.7617   -0.4125    0.0000 C   0  0
   -1.7617    0.4125    0.0000 C   0  0
   -1.0473    0.8250    0.0000 C   0  0
   -0.3328    0.4125    0.0000 C   0  0
    0.3817    0.8250    0.0000 O   0  0
    0.3817    1.6500    0.0000 C   0  0
    1.0961    2.0625    0.0000 C   0  0
    1.0961    2.8875    0.0000 C   0  0
    1.8808    3.1424    0.0000 N   0  0
    2.3657    2.4750    0.0000 C   0  0
    1.8808    1.8076    0.0000 C   0  0
    0.3817    3.3000    0.0000 N   0  0
   -0.3328    2.8875    0.0000 C   0  0
   -1.0473    3.3000    0.0000 N   0  0
   -1.7617    2.8875    0.0000 C   0  0
   -1.7617    2.0625    0.0000 C   0  0
   -2.4762    1.6500    0.0000 C   0  0
   -3.1907    2.0625    0.0000 C   0  0
   -3.9052    1.6500    0.0000 N   0  0
   -3.9052    0.8250    0.0000 C   0  0
   -4.6196    0.4125    0.0000 C   0  0
   -5.3341    0.8250    0.0000 N   0  0
   -6.0486    0.4125    0.0000 C   0  0
   -5.3341    1.6500    0.0000 C   0  0
   -4.6196    2.0625    0.0000 C   0  0
   -3.1907    2.8875    0.0000 C   0  0
   -3.9052    3.3000    0.0000 F   0  0
   -2.4762    3.3000    0.0000 C   0  0
   -0.3328    2.0625    0.0000 N   0  0
   -0.3328   -0.4125    0.0000 C   0  0
   -2.4762   -1.6500    0.0000 O   0  0
    5.3341    0.4125    0.0000 O   0  0
    5.3341   -0.4125    0.0000 C   0  0
    6.0486   -0.8250    0.0000 O   0  0
    4.6196   -0.8250    0.0000 C   0  0
    3.9052   -0.4125    0.0000 C   0  0
    3.9052    0.4125    0.0000 C   0  0
    3.1907    0.8250    0.0000 O   0  0
    4.6196    0.8250    0.0000 O   0  0
  1  2  2  0
  2  3  1  0
  3  4  1  0
  4  5  1  0
  5  6  2  0
  6  7  1  0
  7  8  2  0
  8  9  1  0
  9 10  1  0
 10 11  1  0
 11 12  2  0
 12 13  1  0
 13 14  1  0
 14 15  1  0
 15 16  2  0
 12 16  1  0
 13 17  2  0
 17 18  1  0
 18 19  1  0
 19 20  1  0
 20 21  2  0
 21 22  1  0
 22 23  2  0
 23 24  1  0
 24 25  1  0
 25 26  1  0
 26 27  1  0
 27 28  1  0
 27 29  1  0
 29 30  1  0
 24 30  1  0
 23 31  1  0
 31 32  1  0
 31 33  2  0
 20 33  1  0
 18 34  2  0
 11 34  1  0
  9 35  2  0
  5 35  1  0
  3 36  2  0
 37 38  2  0
 38 39  1  0
 38 40  1  0
 40 41  2  0
 41 42  1  0
 42 43  1  0
 42 44  2  0
M  END
> <Library>
Bioactives

> <Batch>
2012

> <PLATE>
B1002L2012M01

> <WELL>
E6

> <EOS>
EOS100459

> <CCMF_source_vial_barcode>
LV2001695751

> <concentration_mM>
10

> <volume_ul>
30

$$$$
EOS100460
  SciTegic04282016392D

 29 31  0  0  1  0            999 V2000
    0.0000    0.0000    0.0000 C   0  0
    0.7145   -0.4125    0.0000 C   0  0
    0.7145   -1.2375    0.0000 C   0  0
    1.4289   -1.6500    0.0000 C   0  0
    1.4289   -2.4750    0.0000 N   0  0
    2.1434   -2.8875    0.0000 C   0  0
    2.8579   -2.4750    0.0000 C   0  0
    3.5724   -2.8875    0.0000 C   0  0
    4.2868   -2.4750    0.0000 C   0  0
    5.0013   -2.0625    0.0000 F   0  0
    3.8743   -1.7605    0.0000 F   0  0
    4.6993   -3.1895    0.0000 F   0  0
    3.5724   -3.7125    0.0000 C   0  0
    2.8579   -4.1250    0.0000 C   0  0
    2.1434   -3.7125    0.0000 C   0  0
    0.7145   -2.8875    0.0000 C   0  0
    0.0000   -2.4750    0.0000 N   0  0
    0.0000   -1.6500    0.0000 C   0  0  1  0  0  0
   -0.7145   -1.2375    0.0000 C   0  0
   -1.4289   -1.6500    0.0000 C   0  0
   -2.1434   -1.2375    0.0000 N   0  0
   -2.1434   -0.4125    0.0000 C   0  0
   -2.8579    0.0000    0.0000 C   0  0
   -3.5724    0.4125    0.0000 N   0  0
   -1.4289    0.0000    0.0000 C   0  0
   -0.7145   -0.4125    0.0000 C   0  0
    0.7145   -3.7125    0.0000 O   0  0
    2.1434   -1.2375    0.0000 C   0  0
    1.4289    0.0000    0.0000 O   0  0
  1  2  1  0
  2  3  1  0
  3  4  2  0
  4  5  1  0
  5  6  1  0
  6  7  2  0
  7  8  1  0
  8  9  1  0
  9 10  1  0
  9 11  1  0
  9 12  1  0
  8 13  2  0
 13 14  1  0
 14 15  2  0
  6 15  1  0
  5 16  1  0
 16 17  1  0
 18 17  1  0
 18  3  1  0
 18 19  1  1
 19 20  2  0
 20 21  1  0
 21 22  2  0
 22 23  1  0
 23 24  3  0
 22 25  1  0
 25 26  2  0
 19 26  1  0
 16 27  2  0
  4 28  1  0
  2 29  2  0
M  END
> <Library>
Bioactives

> <Batch>
2012

> <PLATE>
B1002L2012M01

> <WELL>
G6

> <EOS>
EOS100460

> <CCMF_source_vial_barcode>
LV2001696352

> <concentration_mM>
10

> <volume_ul>
30

$$$$
EOS100461
  SciTegic04282016392D

 28 31  0  0  0  0            999 V2000
   -6.2104   -0.1676    0.0000 F   0  0
   -5.5784   -0.6979    0.0000 C   0  0
   -6.2104   -1.2282    0.0000 F   0  0
   -5.1659    0.0165    0.0000 C   0  0
   -4.3409    0.0165    0.0000 C   0  0
   -3.9284   -0.6979    0.0000 C   0  0
   -3.1034   -0.6979    0.0000 N   0  0
   -2.6909    0.0165    0.0000 C   0  0
   -1.8659    0.0165    0.0000 C   0  0
   -1.4534   -0.6979    0.0000 C   0  0
   -0.6284   -0.6979    0.0000 N   0  0
   -0.1435   -1.3654    0.0000 C   0  0
    0.6411   -1.1104    0.0000 C   0  0
    0.6411   -0.2854    0.0000 C   0  0
    1.3556    0.1271    0.0000 C   0  0
    1.3556    0.9521    0.0000 C   0  0
    0.6411    1.3646    0.0000 N   0  0
    2.0701    1.3646    0.0000 O   0  0
    2.0701   -0.2854    0.0000 C   0  0
    2.0701   -1.1104    0.0000 C   0  0
    2.7845   -1.5229    0.0000 F   0  0
    1.3556   -1.5229    0.0000 C   0  0
   -0.1435   -0.0305    0.0000 C   0  0
   -0.3984    0.7541    0.0000 O   0  0
   -1.8659   -1.4124    0.0000 C   0  0
   -2.6909   -1.4124    0.0000 C   0  0
   -4.3409   -1.4124    0.0000 C   0  0
   -5.1659   -1.4124    0.0000 C   0  0
  1  2  1  0
  2  3  1  0
  2  4  1  0
  4  5  1  0
  5  6  1  0
  6  7  1  0
  7  8  1  0
  8  9  1  0
  9 10  1  0
 10 11  1  0
 11 12  1  0
 12 13  1  0
 13 14  2  0
 14 15  1  0
 15 16  1  0
 16 17  1  0
 16 18  2  0
 15 19  2  0
 19 20  1  0
 20 21  1  0
 20 22  2  0
 13 22  1  0
 11 23  1  0
 14 23  1  0
 23 24  2  0
 10 25  1  0
 25 26  1  0
  7 26  1  0
  6 27  1  0
 27 28  1  0
  2 28  1  0
M  END
> <Library>
Bioactives

> <Batch>
2012

> <PLATE>
B1002L2012M01

> <WELL>
I6

> <EOS>
EOS100461

> <CCMF_source_vial_barcode>
LV2001695151

> <concentration_mM>
10

> <volume_ul>
30

$$$$
EOS100462
  SciTegic04282016392D

 33 38  0  0  0  0            999 V2000
   -0.1712    0.7310    0.0000 N   0  0
   -0.5837    0.0165    0.0000 C   0  0
   -1.4087    0.0165    0.0000 N   0  0
   -1.8212   -0.6979    0.0000 C   0  0
   -1.4087   -1.4124    0.0000 C   0  0
   -0.5837   -1.4124    0.0000 C   0  0
   -0.1712   -0.6979    0.0000 C   0  0
    0.6538   -0.6979    0.0000 C   0  0
    1.1387   -0.0305    0.0000 N   0  0
    1.9233   -0.2854    0.0000 C   0  0
    2.6378    0.1271    0.0000 C   0  0
    3.3523   -0.2854    0.0000 C   0  0
    1.9233   -1.1104    0.0000 C   0  0
    1.1387   -1.3654    0.0000 N   0  0
    0.8838   -2.1500    0.0000 C   0  0
    1.4358   -2.7631    0.0000 C   0  0
    1.1809   -3.5477    0.0000 C   0  0
    0.3739   -3.7192    0.0000 C   0  0
    0.1190   -4.5039    0.0000 C   0  0
   -0.6657   -4.2489    0.0000 N   0  0
    0.9036   -4.7588    0.0000 C   0  0
    0.6486   -5.5434    0.0000 C   0  0
   -0.1360   -5.2885    0.0000 C   0  0
   -0.1781   -3.1062    0.0000 C   0  0
    0.0768   -2.3215    0.0000 C   0  0
    2.6378   -1.5229    0.0000 N   0  0
    3.3523   -1.1104    0.0000 C   0  0
    4.0668   -1.5229    0.0000 C   0  0
    4.7812   -1.1104    0.0000 C   0  0
    5.4957   -1.5229    0.0000 C   0  0
    5.4957   -2.3479    0.0000 C   0  0
    4.7812   -2.7604    0.0000 C   0  0
    4.0668   -2.3479    0.0000 C   0  0
  1  2  1  0
  2  3  2  0
  3  4  1  0
  4  5  2  0
  5  6  1  0
  6  7  2  0
  2  7  1  0
  7  8  1  0
  8  9  2  0
  9 10  1  0
 10 11  2  0
 11 12  1  0
 10 13  1  0
 13 14  1  0
  8 14  1  0
 14 15  1  0
 15 16  2  0
 16 17  1  0
 17 18  2  0
 18 19  1  0
 19 20  1  0
 19 21  1  0
 21 22  1  0
 22 23  1  0
 19 23  1  0
 18 24  1  0
 24 25  2  0
 15 25  1  0
 13 26  2  0
 26 27  1  0
 12 27  2  0
 27 28  1  0
 28 29  2  0
 29 30  1  0
 30 31  2  0
 31 32  1  0
 32 33  2  0
 28 33  1  0
M  END
> <Library>
Bioactives

> <Batch>
2012

> <PLATE>
B1002L2012M01

> <WELL>
K6

> <EOS>
EOS100462

> <CCMF_source_vial_barcode>
LV2001695729

> <concentration_mM>
10

> <volume_ul>
30

$$$$
EOS100463
  SciTegic04282016392D

 24 26  0  0  1  0            999 V2000
    9.5636    1.0017    0.0000 Br  0  0
    9.5636   -0.6882    0.0000 Cl  0  0
    3.7934    0.9818    0.0000 O   0  0
    4.5079    0.5692    0.0000 O   0  0
    6.6513   -1.4933    0.0000 O   0  0
    2.3644   -0.6683    0.0000 N   0  0
    5.9369   -0.2558    0.0000 N   0  0
    6.6513    0.9818    0.0000 N   0  0
    3.0789   -0.2558    0.0000 C   0  0  2  0  0  0
    3.0789    0.5692    0.0000 C   0  0  1  0  0  0
    2.3644    0.9818    0.0000 C   0  0
    1.6500    0.5692    0.0000 C   0  0
    1.6500   -0.2558    0.0000 C   0  0
    3.7934   -0.6683    0.0000 C   0  0
    4.5079   -0.2558    0.0000 C   0  0
    5.2223   -0.6683    0.0000 C   0  0
    6.6513   -0.6683    0.0000 C   0  0
    7.3658   -0.2558    0.0000 C   0  0
    5.9369    0.5692    0.0000 C   0  0
    7.3658    0.5692    0.0000 C   0  0
    8.1033   -0.6969    0.0000 C   0  0
    8.1033    1.0104    0.0000 C   0  0
    8.8508   -0.2729    0.0000 C   0  0
    8.8508    0.5864    0.0000 C   0  0
  1 24  1  0
  2 23  1  0
 10  3  1  1
  4 15  2  0
  5 17  2  0
  9  6  1  0
  6 13  1  0
  7 16  1  0
  7 17  1  0
  7 19  1  0
  8 19  2  0
  8 20  1  0
  9 10  1  0
  9 14  1  6
 10 11  1  0
 11 12  1  0
 12 13  1  0
 14 15  1  0
 15 16  1  0
 17 18  1  0
 18 20  1  0
 18 21  2  0
 20 22  2  0
 21 23  1  0
 22 24  1  0
 23 24  2  0
M  END
> <Library>
Bioactives

> <Batch>
2012

> <PLATE>
B1002L2012M01

> <WELL>
M6

> <EOS>
EOS100463

> <CCMF_source_vial_barcode>
LV2001696304

> <concentration_mM>
10

> <volume_ul>
30

$$$$
EOS100464
  SciTegic04282016392D

 23 26  0  0  0  0            999 V2000
   -1.6795    1.0386    0.0000 C   0  0
   -2.5045    1.0386    0.0000 C   0  0
   -2.9170    0.3241    0.0000 C   0  0
   -2.5045   -0.3904    0.0000 C   0  0
   -1.6795   -0.3904    0.0000 C   0  0
   -1.2670    0.3241    0.0000 C   0  0
   -1.2670   -1.1049    0.0000 C   0  0
   -0.4420   -1.1049    0.0000 C   0  0
   -0.0295   -0.3904    0.0000 C   0  0
   -0.4420    0.3241    0.0000 C   0  0
    0.7955   -0.3904    0.0000 C   0  0  2  0  0  0
    1.2805   -1.0578    0.0000 C   0  0
    2.0650   -0.8029    0.0000 N   0  0
    2.0650    0.0221    0.0000 C   0  0
    1.2805    0.2770    0.0000 C   0  0
    1.2804   -1.8828    0.0000 C   0  0
    2.0651   -2.1378    0.0000 N   0  0
    2.5500   -1.4704    0.0000 C   0  0
   -3.7420    0.3241    0.0000 C   0  0
   -4.1545   -0.3904    0.0000 N   0  0
   -4.1545    1.0386    0.0000 O   0  0
   -4.9795   -0.3904    0.0000 C   0  0
    0.5820   -1.1873    0.0000 O   0  0
  1  2  1  0
  1  6  2  0
  2  3  2  0
  3  4  1  0
  4  5  2  0
  5  7  1  0
  5  6  1  0
  6 10  1  0
  7  8  2  0
  8  9  1  0
  9 10  2  0
 11  9  1  0
 11 12  1  0
 11 15  1  0
 13 14  1  0
 14 15  1  0
 12 16  2  0
 13 12  1  0
 13 18  1  0
 16 17  1  0
 17 18  2  0
  3 19  1  0
 19 20  1  0
 19 21  2  0
 20 22  1  0
 11 23  1  6
M  END
> <Library>
Bioactives

> <Batch>
2012

> <PLATE>
B1002L2012M01

> <WELL>
O6

> <EOS>
EOS100464

> <CCMF_source_vial_barcode>
LV2001696320

> <concentration_mM>
10

> <volume_ul>
30

$$$$
EOS100465
  SciTegic04282016392D

 25 27  0  0  0  0            999 V2000
    3.5680    2.0608    0.0000 C   0  0
    3.5680    1.2358    0.0000 C   0  0
    4.2826    0.8233    0.0000 N   0  0
    4.9970    1.2358    0.0000 C   0  0
    4.9970    2.0608    0.0000 N   0  0
    4.2826    2.4733    0.0000 C   0  0
    5.7100    0.8241    0.0000 N   0  0
    6.4231    1.2358    0.0000 C   0  0
    7.1376    0.8233    0.0000 C   0  0
    7.8520    1.2358    0.0000 C   0  0
    7.8520    2.0608    0.0000 C   0  0
    7.1376    2.4733    0.0000 C   0  0
    6.4231    2.0608    0.0000 C   0  0
    2.8550    0.8241    0.0000 N   0  0
    2.1420    1.2358    0.0000 C   0  0
    2.1420    2.0608    0.0000 C   0  0
    1.4275    2.4734    0.0000 C   0  0
    0.7130    2.0608    0.0000 C   0  0
    0.7130    1.2358    0.0000 C   0  0
    1.4275    0.8233    0.0000 C   0  0
    1.4275    0.0000    0.0000 C   0  0
    2.8550    2.4725    0.0000 C   0  0
    0.0000    2.4725    0.0000 C   0  0
    8.5650    2.4725    0.0000 C   0  0
    9.2795    2.8850    0.0000 N   0  0
  1  2  2  0
  2  3  1  0
  3  4  2  0
  4  5  1  0
  5  6  2  0
  6  1  1  0
  4  7  1  0
  7  8  1  0
  8  9  2  0
  9 10  1  0
 10 11  2  0
 11 12  1  0
 12 13  2  0
 13  8  1  0
  2 14  1  0
 14 15  1  0
 15 16  2  0
 16 17  1  0
 17 18  2  0
 18 19  1  0
 19 20  2  0
 20 15  1  0
 11 24  1  0
 20 21  1  0
 16 22  1  0
 18 23  1  0
 24 25  3  0
M  END
> <Library>
Bioactives

> <Batch>
2012

> <PLATE>
B1002L2012M01

> <WELL>
A8

> <EOS>
EOS100465

> <CCMF_source_vial_barcode>
LV2001695163

> <concentration_mM>
10

> <volume_ul>
30

$$$$
EOS100466
  SciTegic04282016392D

 22 24  0  0  0  0            999 V2000
    0.6529    0.7023    0.0000 C   0  0  1  0  0  0
    0.6529    1.5273    0.0000 C   0  0
    1.3673    0.2898    0.0000 C   0  0
    2.0818    0.7023    0.0000 C   0  0
    2.7963    0.2898    0.0000 C   0  0
    2.7963   -0.5352    0.0000 C   0  0
    2.0818   -0.9477    0.0000 C   0  0
    1.3673   -0.5352    0.0000 C   0  0
    3.5107   -0.9477    0.0000 Cl  0  0
   -0.0616    1.9398    0.0000 N   0  0
   -0.0616    0.2898    0.0000 C   0  0
   -0.0616   -0.5352    0.0000 C   0  0
   -0.7761   -0.9477    0.0000 C   0  0
   -1.4906   -0.5352    0.0000 C   0  0
   -1.4906    0.2898    0.0000 C   0  0
   -0.7761    0.7023    0.0000 C   0  0
   -3.0982   -1.9398    0.0000 N   0  0
   -3.5107   -1.2253    0.0000 N   0  0
   -2.9587   -0.6122    0.0000 C   0  0
   -2.2050   -0.9477    0.0000 C   0  0
   -2.2913   -1.7682    0.0000 C   0  0
   -0.0616    1.1148    0.0000 O   0  0
  1  2  1  1
  3  4  2  0
  4  5  1  0
  5  6  2  0
  6  7  1  0
  7  8  2  0
  3  8  1  0
  6  9  1  0
  1  3  1  0
  2 10  1  0
 11 12  2  0
 12 13  1  0
 13 14  2  0
 14 15  1  0
 15 16  2  0
 11 16  1  0
 17 18  1  0
 18 19  2  0
 19 20  1  0
 20 21  2  0
 17 21  1  0
 14 20  1  0
  1 11  1  0
  1 22  1  6
M  END
> <Library>
Bioactives

> <Batch>
2012

> <PLATE>
B1002L2012M01

> <WELL>
C8

> <EOS>
EOS100466

> <CCMF_source_vial_barcode>
LV2001695780

> <concentration_mM>
10

> <volume_ul>
30

$$$$
EOS100467
  SciTegic04282016392D

 22 24  0  0  0  0            999 V2000
   -1.1778   -0.2472    0.0000 C   0  0
   -0.8654    0.4944    0.0000 C   0  0
    0.1545   -0.3673    0.0000 N   0  0
   -0.5562   -0.7933    0.0000 C   0  0
   -0.0412    0.4429    0.0000 C   0  0
    0.8654   -0.7795    0.0000 C   0  0
   -1.3426    1.1675    0.0000 N   0  0
    1.5726   -0.3673    0.0000 C   0  0
    2.2973   -0.7795    0.0000 C   0  0
   -0.6182   -1.6173    0.0000 O   0  0
    0.4703    1.1023    0.0000 O   0  0
   -1.9883   -0.4120    0.0000 Cl  0  0
    0.8654   -1.6035    0.0000 C   0  0
    2.2973   -1.6035    0.0000 C   0  0
    1.5726   -2.0157    0.0000 C   0  0
   -2.3007    2.5032    0.0000 O   0  0
    3.0251   -0.3673    0.0000 Cl  0  0
    3.0251   -2.0157    0.0000 Cl  0  0
   -0.9993    1.9127    0.0000 C   0  0
   -2.1668    1.0851    0.0000 C   0  0
   -2.6474    1.7443    0.0000 C   0  0
   -1.4765    2.5856    0.0000 C   0  0
  2  1  2  0
  3  4  1  0
  4  1  1  0
  5  2  1  0
  6  3  1  0
  7  2  1  0
  8  6  2  0
  9  8  1  0
 10  4  2  0
 11  5  2  0
 12  1  1  0
 13  6  1  0
 14 15  1  0
 15 13  2  0
 16 21  1  0
 17  9  1  0
 18 14  1  0
 19  7  1  0
 20  7  1  0
 21 20  1  0
 22 19  1  0
  5  3  1  0
 16 22  1  0
 14  9  2  0
M  END
> <Library>
Bioactives

> <Batch>
2012

> <PLATE>
B1002L2012M01

> <WELL>
E8

> <EOS>
EOS100467

> <CCMF_source_vial_barcode>
LV2001695742

> <concentration_mM>
10

> <volume_ul>
30

$$$$
EOS100468
  SciTegic04282016392D

  9  8  0  0  0  0            999 V2000
    0.1412   -1.8064    0.0000 P   0  0
    1.5686   -1.8238    0.0000 P   0  0
    0.8505   -2.2272    0.0000 C   0  0
    1.1593   -1.0966    0.0000 O   0  0
   -0.2792   -2.5165    0.0000 O   0  0
    2.2925   -1.4153    0.0000 O   0  0
    1.9758   -2.5498    0.0000 O   0  0
   -0.5584   -1.3701    0.0000 O   0  0
    0.5591   -1.0962    0.0000 O   0  0
  2  3  1  0
  3  1  1  0
  4  2  2  0
  5  1  1  0
  6  2  1  0
  7  2  1  0
  8  1  1  0
  1  9  2  0
M  END
> <Library>
Bioactives

> <Batch>
2012

> <PLATE>
B1002L2012M01

> <WELL>
G8

> <EOS>
EOS100468

> <CCMF_source_vial_barcode>
LV2001696382

> <concentration_mM>
10

> <volume_ul>
30

$$$$
EOS100469
  SciTegic04282016392D

 33 37  0  0  0  0            999 V2000
    4.8901    0.5107    0.0000 C   0  0
    4.0696    0.4245    0.0000 N   0  0
    3.5176    1.0376    0.0000 C   0  0
    2.7639    0.7021    0.0000 C   0  0
    2.8502   -0.1184    0.0000 C   0  0
    3.6571   -0.2899    0.0000 C   0  0
    3.9120   -1.0745    0.0000 N   0  0
    3.3600   -1.6877    0.0000 C   0  0
    2.5530   -1.5161    0.0000 N   0  0
    2.2982   -0.7315    0.0000 C   0  0
    1.4912   -0.5600    0.0000 N   0  0
    2.0494    1.1146    0.0000 C   0  0
    1.3350    0.7021    0.0000 C   0  0
    0.6205    1.1146    0.0000 C   0  0
    0.6205    1.9396    0.0000 C   0  0
    1.3350    2.3520    0.0000 C   0  0
    2.0494    1.9396    0.0000 C   0  0
   -0.1641    2.1945    0.0000 N   0  0
   -0.6491    1.5271    0.0000 C   0  0
   -0.1641    0.8596    0.0000 C   0  0
   -0.4191    2.9792    0.0000 C   0  0
    0.1329    3.5923    0.0000 O   0  0
   -1.2261    3.1507    0.0000 C   0  0
   -1.4810    3.9353    0.0000 C   0  0
   -2.2880    4.1068    0.0000 C   0  0
   -2.5429    4.8915    0.0000 C   0  0
   -1.9909    5.5045    0.0000 C   0  0
   -1.1839    5.3331    0.0000 C   0  0
   -0.9289    4.5484    0.0000 C   0  0
   -3.3499    5.0630    0.0000 C   0  0
   -4.1569    5.2345    0.0000 F   0  0
   -3.1783    5.8699    0.0000 F   0  0
   -3.5215    4.2561    0.0000 F   0  0
  1  2  1  0
  2  3  1  0
  3  4  2  0
  4  5  1  0
  5  6  1  0
  2  6  1  0
  6  7  2  0
  7  8  1  0
  8  9  2  0
  9 10  1  0
  5 10  2  0
 10 11  1  0
  4 12  1  0
 12 13  2  0
 13 14  1  0
 14 15  2  0
 15 16  1  0
 16 17  2  0
 12 17  1  0
 15 18  1  0
 18 19  1  0
 19 20  1  0
 14 20  1  0
 18 21  1  0
 21 22  2  0
 21 23  1  0
 23 24  1  0
 24 25  2  0
 25 26  1  0
 26 27  2  0
 27 28  1  0
 28 29  2  0
 24 29  1  0
 26 30  1  0
 30 31  1  0
 30 32  1  0
 30 33  1  0
M  END
> <Library>
Bioactives

> <Batch>
2012

> <PLATE>
B1002L2012M01

> <WELL>
I8

> <EOS>
EOS100469

> <CCMF_source_vial_barcode>
LV2001695189

> <concentration_mM>
10

> <volume_ul>
30

$$$$
EOS100470
  SciTegic04282016392D

 21 22  0  0  0  0            999 V2000
   -0.5486   -2.6811    0.0000 N   0  0
   -1.3737   -2.6811    0.0000 S   0  0
   -2.1986   -2.6811    0.0000 O   0  0
   -1.3737   -3.5062    0.0000 O   0  0
   -1.3737   -1.8562    0.0000 C   0  0
   -0.6592   -1.4437    0.0000 C   0  0
   -0.6592   -0.6187    0.0000 C   0  0
   -1.3737   -0.2062    0.0000 C   0  0
   -1.3737    0.6187    0.0000 N   0  0
   -0.6592    1.0312    0.0000 C   0  0
    0.0552    0.6187    0.0000 O   0  0
   -0.6592    1.8562    0.0000 N   0  0
    0.0552    2.2688    0.0000 C   0  0
    0.7697    1.8562    0.0000 C   0  0
    1.4842    2.2688    0.0000 C   0  0
    1.4842    3.0937    0.0000 C   0  0
    2.1986    3.5062    0.0000 F   0  0
    0.7697    3.5062    0.0000 C   0  0
    0.0552    3.0937    0.0000 C   0  0
   -2.0881   -0.6187    0.0000 C   0  0
   -2.0881   -1.4437    0.0000 C   0  0
  1  2  1  0
  2  3  2  0
  2  4  2  0
  2  5  1  0
  5  6  2  0
  6  7  1  0
  7  8  2  0
  8  9  1  0
  9 10  1  0
 10 11  2  0
 10 12  1  0
 12 13  1  0
 13 14  2  0
 14 15  1  0
 15 16  2  0
 16 17  1  0
 16 18  1  0
 18 19  2  0
 13 19  1  0
  8 20  1  0
 20 21  2  0
  5 21  1  0
M  END
> <Library>
Bioactives

> <Batch>
2012

> <PLATE>
B1002L2012M01

> <WELL>
K8

> <EOS>
EOS100470

> <CCMF_source_vial_barcode>
LV2001695752

> <concentration_mM>
10

> <volume_ul>
30

$$$$
EOS100471
  SciTegic04282016392D

 32 35  0  0  0  0            999 V2000
    1.5480    2.5855    0.0000 O   0  0
    1.1355    3.3000    0.0000 S   0  0
    1.8500    3.7125    0.0000 N   0  0
    2.5645    3.3000    0.0000 C   0  0
    3.2789    3.7125    0.0000 C   0  0
    3.9934    3.3000    0.0000 C   0  0
    3.9934    2.4750    0.0000 C   0  0
    4.7079    2.0625    0.0000 O   0  0
    5.4223    2.4750    0.0000 C   0  0
    5.4223    3.3000    0.0000 C   0  0
    6.1368    3.7125    0.0000 C   0  0
    6.8513    3.3000    0.0000 C   0  0
    7.5658    3.7125    0.0000 F   0  0
    6.8513    2.4750    0.0000 C   0  0
    6.1368    2.0625    0.0000 C   0  0
    6.1368    1.2375    0.0000 F   0  0
    3.2789    2.0625    0.0000 C   0  0
    3.2789    1.2375    0.0000 C   0  0
    3.9934    0.8250    0.0000 C   0  0
    3.9934    0.0000    0.0000 N   0  0
    4.7079   -0.4125    0.0000 C   0  0
    3.2789   -0.4125    0.0000 C   0  0
    2.5645    0.0000    0.0000 C   0  0
    2.5645    0.8250    0.0000 C   0  0
    1.7798    1.0799    0.0000 C   0  0
    1.2949    0.4125    0.0000 C   0  0
    1.7798   -0.2549    0.0000 N   0  0
    3.2789   -1.2375    0.0000 O   0  0
    2.5645    2.4750    0.0000 C   0  0
    0.4210    2.8875    0.0000 C   0  0
    0.4210    2.0625    0.0000 C   0  0
    0.7230    4.0145    0.0000 O   0  0
  1  2  2  0
  2  3  1  0
  3  4  1  0
  4  5  2  0
  5  6  1  0
  6  7  2  0
  7  8  1  0
  8  9  1  0
  9 10  2  0
 10 11  1  0
 11 12  2  0
 12 13  1  0
 12 14  1  0
 14 15  2  0
  9 15  1  0
 15 16  1  0
  7 17  1  0
 17 18  1  0
 18 19  2  0
 19 20  1  0
 20 21  1  0
 20 22  1  0
 22 23  1  0
 23 24  2  0
 18 24  1  0
 24 25  1  0
 25 26  2  0
 26 27  1  0
 23 27  1  0
 22 28  2  0
 17 29  2  0
  4 29  1  0
  2 30  1  0
 30 31  1  0
  2 32  2  0
M  END
> <Library>
Bioactives

> <Batch>
2012

> <PLATE>
B1002L2012M01

> <WELL>
M8

> <EOS>
EOS100471

> <CCMF_source_vial_barcode>
LV2001695744

> <concentration_mM>
10

> <volume_ul>
30

$$$$
EOS100472
  SciTegic04282016392D

 34 37  0  0  0  0            999 V2000
   -5.0998   -0.7081    0.0000 C   0  0
   -5.0998   -1.5331    0.0000 C   0  0
   -4.3853   -1.9456    0.0000 C   0  0
   -3.6708   -1.5331    0.0000 C   0  0
   -3.6708   -0.7081    0.0000 C   0  0
   -4.3853   -0.2956    0.0000 C   0  0
   -5.8142   -1.9456    0.0000 O   0  0
   -6.5287   -1.5331    0.0000 C   0  0
   -2.9564   -1.9456    0.0000 C   0  0
   -2.2419   -1.5331    0.0000 N   0  0
   -1.5274   -1.9456    0.0000 C   0  0
   -0.8129   -1.5331    0.0000 C   0  0
   -1.5274   -2.7706    0.0000 O   0  0
   -0.0985   -1.9456    0.0000 N   0  0
    0.6160   -1.5331    0.0000 C   0  0
    0.6160   -0.7081    0.0000 C   0  0
   -0.0985   -0.2956    0.0000 C   0  0
   -0.8129   -0.7081    0.0000 N   0  0
    1.4006   -1.7880    0.0000 S   0  0
    1.8855   -1.1206    0.0000 C   0  0
    1.4006   -0.4532    0.0000 C   0  0
   -0.0985    0.5294    0.0000 O   0  0
    1.6556    0.3315    0.0000 C   0  0
    2.4625    0.5030    0.0000 O   0  0
    2.7175    1.2876    0.0000 C   0  0
    3.5244    1.4591    0.0000 C   0  0
    4.0765    0.8460    0.0000 C   0  0
    4.8834    1.0176    0.0000 C   0  0
    5.1384    1.8022    0.0000 C   0  0
    4.5863    2.4153    0.0000 C   0  0
    3.7794    2.2438    0.0000 C   0  0
    5.9454    1.9737    0.0000 C   0  0
    6.1589    2.7706    0.0000 O   0  0
    6.5287    1.3904    0.0000 O   0  0
  1  2  2  0
  2  3  1  0
  3  4  2  0
  4  5  1  0
  5  6  2  0
  6  1  1  0
  2  7  1  0
  7  8  1  0
  4  9  1  0
  9 10  1  0
 10 11  1  0
 11 12  1  0
 11 13  2  0
 12 14  2  0
 14 15  1  0
 15 16  2  0
 16 17  1  0
 17 18  1  0
 18 12  1  0
 15 19  1  0
 19 20  1  0
 20 21  2  0
 21 16  1  0
 17 22  2  0
 21 23  1  0
 23 24  1  0
 24 25  1  0
 25 26  1  0
 26 27  2  0
 27 28  1  0
 28 29  2  0
 29 30  1  0
 30 31  2  0
 31 26  1  0
 29 32  1  0
 32 33  2  0
 32 34  1  0
M  END
> <Library>
Bioactives

> <Batch>
2012

> <PLATE>
B1002L2012M01

> <WELL>
O8

> <EOS>
EOS100472

> <CCMF_source_vial_barcode>
LV2001696414

> <concentration_mM>
10

> <volume_ul>
30

$$$$
EOS100473
  SciTegic04282016392D

 46 53  0  0  0  0            999 V2000
   10.0343    1.2785    0.0000 C   0  0
    9.8641    2.0858    0.0000 C   0  0
    9.0799    2.3420    0.0000 C   0  0
    8.4659    1.7910    0.0000 C   0  0
    8.6361    0.9837    0.0000 C   0  0
    9.4203    0.7275    0.0000 C   0  0
    6.2458    0.1706    0.0000 C   0  0
    6.5016    0.9549    0.0000 C   0  0
    5.9503    1.5686    0.0000 C   0  0
    5.1431    1.3981    0.0000 C   0  0
    4.8873    0.6137    0.0000 C   0  0
    5.4386    0.0000    0.0000 C   0  0
    4.7596    2.5999    0.0000 C   0  0
    5.1736    3.3235    0.0000 C   0  0
    4.7625    4.0288    0.0000 C   0  0
    3.9375    4.0305    0.0000 C   0  0
    3.5235    3.3141    0.0000 C   0  0
    3.9346    2.6015    0.0000 C   0  0
    7.6432    1.8782    0.0000 N   0  0
    7.3088    1.1255    0.0000 C   0  0
    7.9193    0.5746    0.0000 N   0  0
    7.2369    2.5962    0.0000 C   0  0  1  0  0  0
    7.6544    3.3051    0.0000 C   0  0
    6.4096    2.6034    0.0000 C   0  0
    6.0063    3.3163    0.0000 O   0  0
    8.4735    3.3068    0.0000 C   0  0
    8.8872    4.0209    0.0000 C   0  0
    8.4754    4.7381    0.0000 N   0  0
    7.6508    4.7374    0.0000 C   0  0
    7.2372    4.0236    0.0000 C   0  0
    2.6986    3.3213    0.0000 C   0  0
    2.2121    3.9890    0.0000 N   0  0
    1.4290    3.7309    0.0000 C   0  0
    1.4290    2.9059    0.0000 C   0  0
    2.2114    2.6527    0.0000 N   0  0
    2.4656    4.7741    0.0000 C   0  0
    1.9408    5.4106    0.0000 C   0  0
    2.2297    6.1834    0.0000 C   0  0
    1.7049    6.8200    0.0000 C   0  0
    0.8912    6.6838    0.0000 C   0  0
    0.6023    5.9110    0.0000 C   0  0
    1.1271    5.2744    0.0000 C   0  0
    0.7144    4.1433    0.0000 C   0  0
    0.0000    3.7307    0.0000 C   0  0
    0.0001    2.9057    0.0000 C   0  0
    0.7146    2.4933    0.0000 C   0  0
  1  2  2  0
  2  3  1  0
  3  4  2  0
  4  5  1  0
  5  6  2  0
  6  1  1  0
  7  8  2  0
  8  9  1  0
  9 10  2  0
 10 11  1  0
 11 12  2  0
 12  7  1  0
 13 14  2  0
 14 15  1  0
 15 16  2  0
 16 17  1  0
 17 18  2  0
 18 13  1  0
  4 19  1  0
 19 20  1  0
 20 21  2  0
 21  5  1  0
 20  8  1  0
 22 19  1  0
 22 23  1  0
 22 24  1  6
 24 25  1  0
 25 14  1  0
 23 26  1  0
 26 27  1  0
 27 28  1  0
 28 29  1  0
 29 30  1  0
 30 23  1  0
 17 31  1  0
 31 32  1  0
 32 33  1  0
 33 34  1  0
 34 35  1  0
 35 31  2  0
 32 36  1  0
 36 37  1  0
 37 38  2  0
 38 39  1  0
 39 40  2  0
 40 41  1  0
 41 42  2  0
 42 37  1  0
 33 43  2  0
 43 44  1  0
 44 45  2  0
 45 46  1  0
 46 34  2  0
M  END
> <Library>
Bioactives

> <Batch>
2012

> <PLATE>
B1002L2012M01

> <WELL>
A10

> <EOS>
EOS100473

> <CCMF_source_vial_barcode>
LV2001696406

> <concentration_mM>
10

> <volume_ul>
30

$$$$
EOS100474
  SciTegic04282016392D

 40 44  0  0  0  0            999 V2000
    1.4290    6.1875    0.0000 C   0  0
    1.4290    5.3625    0.0000 C   0  0
    2.1434    4.9500    0.0000 C   0  0
    2.8579    5.3625    0.0000 C   0  0
    2.8579    6.1875    0.0000 C   0  0
    2.1434    6.6000    0.0000 C   0  0
    0.7144    6.6000    0.0000 C   0  0
    3.5724    4.9500    0.0000 N   0  0
    4.2868    5.3625    0.0000 C   0  0
    5.0013    4.9500    0.0000 C   0  0
    5.0013    4.1250    0.0000 C   0  0
    5.7158    3.7125    0.0000 C   0  0
    6.4302    4.1250    0.0000 C   0  0
    6.4302    4.9500    0.0000 C   0  0
    5.7158    5.3625    0.0000 C   0  0
    4.2868    6.1875    0.0000 O   0  0
    7.1447    5.3625    0.0000 C   0  0
    7.8592    4.9500    0.0000 F   0  0
    7.1447    6.1875    0.0000 F   0  0
    7.8592    5.7750    0.0000 F   0  0
    7.1447    3.7125    0.0000 C   0  0
    7.1447    2.8875    0.0000 N   0  0
    6.4302    2.4750    0.0000 C   0  0
    6.4302    1.6500    0.0000 C   0  0
    7.1447    1.2375    0.0000 N   0  0
    7.8592    1.6500    0.0000 C   0  0
    7.8592    2.4750    0.0000 C   0  0
    7.1447    0.4125    0.0000 C   0  0
    6.4302    0.0000    0.0000 C   0  0
    0.7144    4.9500    0.0000 O   0  0
    0.7144    4.1250    0.0000 C   0  0
    0.0000    3.7125    0.0000 C   0  0
    0.0000    2.8875    0.0000 C   0  0
    0.7144    2.4750    0.0000 C   0  0
    1.4290    2.8875    0.0000 C   0  0
    1.4290    3.7125    0.0000 C   0  0
    0.8860    1.6680    0.0000 N   0  0
    1.7065    1.5818    0.0000 C   0  0
    2.0421    2.3355    0.0000 C   0  0
    2.1190    0.8673    0.0000 O   0  0
  1  2  2  0
  2  3  1  0
  3  4  2  0
  4  5  1  0
  5  6  2  0
  6  1  1  0
  1  7  1  0
  4  8  1  0
  8  9  1  0
  9 10  1  0
 10 11  2  0
 11 12  1  0
 12 13  2  0
 13 14  1  0
 14 15  2  0
 15 10  1  0
  9 16  2  0
 14 17  1  0
 17 18  1  0
 17 19  1  0
 17 20  1  0
 13 21  1  0
 21 22  1  0
 22 23  1  0
 23 24  1  0
 24 25  1  0
 25 26  1  0
 26 27  1  0
 27 22  1  0
 25 28  1  0
 28 29  1  0
  2 30  1  0
 30 31  1  0
 31 32  2  0
 32 33  1  0
 33 34  2  0
 34 35  1  0
 35 36  2  0
 36 31  1  0
 34 37  1  0
 37 38  1  0
 38 39  1  0
 39 35  1  0
 38 40  2  0
M  END
> <Library>
Bioactives

> <Batch>
2012

> <PLATE>
B1002L2012M01

> <WELL>
C10

> <EOS>
EOS100474

> <CCMF_source_vial_barcode>
LV2001695166

> <concentration_mM>
10

> <volume_ul>
30

$$$$
EOS100475
  SciTegic04282016392D

 13 13  0  0  0  0            999 V2000
    1.7801   -0.3060    0.0000 C   0  0
   -0.6949   -0.3265    0.0000 C   0  0
    2.1985   -1.0171    0.0000 C   0  0
    0.9551   -0.3129    0.0000 C   0  0
    0.5485   -1.0308    0.0000 C   0  0
   -1.4905   -0.3331    0.0000 O   0  0
   -0.2691   -1.0375    0.0000 C   0  0
    1.7917   -1.7080    0.0000 C   0  0
    0.9667   -1.7149    0.0000 C   0  0
   -0.2810    0.3915    0.0000 O   0  0
    2.1867    0.4119    0.0000 O   0  0
    3.0235   -1.0103    0.0000 O   0  0
    1.7683    1.1230    0.0000 C   0  0
  2  7  1  0
  3  1  2  0
  4  1  1  0
  5  4  2  0
  6  2  2  0
  7  5  1  0
  8  3  1  0
  9  5  1  0
 10  2  1  0
 11  1  1  0
 12  3  1  0
 13 11  1  0
  8  9  2  0
M  END
> <Library>
Bioactives

> <Batch>
2012

> <PLATE>
B1002L2012M01

> <WELL>
E10

> <EOS>
EOS100475

> <CCMF_source_vial_barcode>
LV2001695192

> <concentration_mM>
10

> <volume_ul>
30

$$$$
EOS100476
  SciTegic04282016392D

 48 51  0  0  0  0            999 V2000
   -8.6842    7.0125    0.0000 O   0  0
   -7.8592    7.0125    0.0000 S   0  0
   -7.8592    6.1875    0.0000 C   0  0
   -8.5737    5.7750    0.0000 C   0  0
   -9.2881    6.1875    0.0000 C   0  0
  -10.0026    5.7750    0.0000 C   0  0
  -10.0026    4.9500    0.0000 C   0  0
   -9.2881    4.5375    0.0000 C   0  0
   -8.5737    4.9500    0.0000 C   0  0
   -7.8592    4.5375    0.0000 C   0  0
   -7.8592    3.7125    0.0000 N   0  0
   -7.1447    4.9500    0.0000 C   0  0
   -6.4302    4.5375    0.0000 N   0  0  3  0  0  0
   -6.4302    3.7125    0.0000 N   0  0
   -5.7158    3.3000    0.0000 C   0  0
   -5.7158    2.4750    0.0000 C   0  0
   -5.0013    2.0625    0.0000 C   0  0
   -4.2868    2.4750    0.0000 C   0  0
   -3.5724    2.0625    0.0000 C   0  0
   -3.5724    1.2375    0.0000 C   0  0
   -2.8579    0.8250    0.0000 C   0  0
   -2.1434    1.2375    0.0000 C   0  0
   -1.4289    0.8250    0.0000 N   0  0  3  0  0  0
   -1.4289    0.0000    0.0000 N   0  0
   -0.7145   -0.4125    0.0000 C   0  0
   -0.7145   -1.2375    0.0000 C   0  0
    0.0000   -1.6500    0.0000 C   0  0
    0.0000   -2.4750    0.0000 S   0  0
   -0.8250   -2.4750    0.0000 O   0  0
    0.0000   -3.3000    0.0000 O   0  5
    0.8250   -2.4750    0.0000 O   0  0
    0.7145   -1.2375    0.0000 C   0  0
    1.4289   -1.6500    0.0000 C   0  0
    2.1434   -1.2375    0.0000 C   0  0
    2.1434   -0.4125    0.0000 C   0  0
    1.4289    0.0000    0.0000 C   0  0
    0.7145   -0.4125    0.0000 C   0  0
    0.0000    0.0000    0.0000 C   0  0
    0.0000    0.8250    0.0000 N   0  0
   -2.1434    2.0625    0.0000 C   0  0
   -2.8579    2.4750    0.0000 C   0  0
   -4.2868    3.3000    0.0000 C   0  0
   -5.0013    3.7125    0.0000 C   0  0
   -7.1447    5.7750    0.0000 C   0  0
   -7.0342    7.0125    0.0000 O   0  5
   -7.8592    7.8375    0.0000 O   0  0
    0.0000   -4.1250    0.0000 Na  0  3  0  0  0 15
   -6.2092    7.0125    0.0000 Na  0  3  0  0  0 15
  1  2  2  0
  2  3  1  0
  2 45  1  0
  2 46  2  0
  3 44  2  0
  3  4  1  0
  4  9  1  0
  4  5  2  0
  5  6  1  0
  6  7  2  0
  7  8  1  0
  8  9  2  0
  9 10  1  0
 10 11  1  0
 10 12  2  0
 13 12  1  4
 12 44  1  0
 13 14  2  0
 14 15  1  6
 15 43  2  0
 15 16  1  0
 16 17  2  0
 17 18  1  0
 18 19  1  0
 18 42  2  0
 19 41  2  0
 19 20  1  0
 20 21  2  0
 21 22  1  0
 23 22  1  4
 22 40  2  0
 23 24  2  0
 24 25  1  6
 25 38  1  0
 25 26  2  0
 26 27  1  0
 27 28  1  0
 27 32  2  0
 28 29  2  0
 28 30  1  0
 28 31  2  0
 32 37  1  0
 32 33  1  0
 33 34  2  0
 34 35  1  0
 35 36  2  0
 36 37  1  0
 37 38  2  0
 38 39  1  0
 40 41  1  0
 42 43  1  0
M  CHG  4  30  -1  45  -1  47   1  48   1
M  END
> <Library>
Bioactives

> <Batch>
2012

> <PLATE>
B1002L2012M01

> <WELL>
G10

> <EOS>
EOS100476

> <CCMF_source_vial_barcode>
LV2001696425

> <concentration_mM>
10

> <volume_ul>
30

$$$$
EOS100477
  SciTegic04282016392D

 29 32  0  0  0  0            999 V2000
   10.0740   -1.2624    0.0000 C   0  0
   10.0724   -2.0907    0.0000 C   0  0
   10.7860   -2.5037    0.0000 C   0  0
   11.5019   -2.0900    0.0000 C   0  0
   11.4980   -1.2574    0.0000 C   0  0
   10.7835   -0.8495    0.0000 C   0  0
   12.2159   -2.5010    0.0000 F   0  0
    9.3549   -0.8501    0.0000 C   0  0
    8.6420   -1.2628    0.0000 C   0  0
    7.9261   -0.8408    0.0000 C   0  0
    7.2160   -1.2544    0.0000 C   0  0
    7.2105   -2.0800    0.0000 N   0  0
    7.9235   -2.4895    0.0000 C   0  0
    8.6422   -2.0793    0.0000 C   0  0
    6.4952   -2.4890    0.0000 C   0  0
    5.7841   -2.0730    0.0000 C   0  0
    6.4912   -3.3140    0.0000 O   0  0
    5.7823   -1.2479    0.0000 O   0  0
    5.0632   -2.4820    0.0000 N   0  0
    4.3520   -2.0660    0.0000 C   0  0
    4.3597   -1.2410    0.0000 C   0  0
    3.6440   -0.8251    0.0000 C   0  0
    3.6436   -2.4758    0.0000 C   0  0
    2.9270   -2.0651    0.0000 C   0  0
    2.9334   -1.2357    0.0000 C   0  0
    2.1448   -0.9733    0.0000 N   0  0
    1.6501   -1.6434    0.0000 C   0  0
    2.1345   -2.3210    0.0000 O   0  0
    0.8251   -1.6372    0.0000 O   0  0
  1  2  2  0
  2  3  1  0
  3  4  2  0
  4  5  1  0
  5  6  2  0
  6  1  1  0
  4  7  1  0
  1  8  1  0
  8  9  1  0
  9 10  1  0
  9 14  1  0
 10 11  1  0
 11 12  1  0
 12 13  1  0
 13 14  1  0
 12 15  1  0
 15 16  1  0
 15 17  2  0
 16 18  2  0
 16 19  1  0
 19 20  1  0
 20 21  2  0
 21 22  1  0
 22 25  2  0
 24 23  2  0
 23 20  1  0
 24 25  1  0
 25 26  1  0
 26 27  1  0
 27 28  1  0
 28 24  1  0
 27 29  2  0
M  END
> <Library>
Bioactives

> <Batch>
2012

> <PLATE>
B1002L2012M01

> <WELL>
I10

> <EOS>
EOS100477

> <CCMF_source_vial_barcode>
LV2001696404

> <concentration_mM>
10

> <volume_ul>
30

$$$$
EOS100478
  SciTegic04282016392D

 24 25  0  0  0  0            999 V2000
    3.5724   -0.4125    0.0000 Cl  0  0
    3.5724   -1.2375    0.0000 C   0  0
    4.2868   -1.6500    0.0000 C   0  0
    4.2868   -2.4750    0.0000 C   0  0
    3.5724   -2.8875    0.0000 C   0  0
    3.5724   -3.7125    0.0000 N   0  0
    2.8579   -4.1250    0.0000 C   0  0
    2.1434   -3.7125    0.0000 N   0  0
    1.4289   -4.1250    0.0000 N   0  0
    0.7145   -3.7125    0.0000 C   0  0
    0.0000   -4.1250    0.0000 C   0  0
   -0.7145   -3.7125    0.0000 C   0  0
   -0.7145   -2.8875    0.0000 C   0  0
   -1.4289   -2.4750    0.0000 Cl  0  0
    0.0000   -2.4750    0.0000 C   0  0
    0.7145   -2.8875    0.0000 C   0  0
    2.8579   -4.9500    0.0000 C   0  0
    2.1434   -5.3625    0.0000 C   0  0
    1.7309   -4.6480    0.0000 C   0  0
    2.5559   -6.0770    0.0000 C   0  0
    1.4289   -5.7750    0.0000 C   0  0
    3.5724   -5.3625    0.0000 O   0  0
    2.8579   -2.4750    0.0000 C   0  0
    2.8579   -1.6500    0.0000 C   0  0
  1  2  1  0
  2  3  2  0
  3  4  1  0
  4  5  2  0
  5  6  1  0
  6  7  2  0
  7  8  1  0
  8  9  1  0
  9 10  1  0
 10 11  2  0
 11 12  1  0
 12 13  2  0
 13 14  1  0
 13 15  1  0
 15 16  2  0
 10 16  1  0
  7 17  1  0
 17 18  1  0
 18 19  1  0
 18 20  1  0
 18 21  1  0
 17 22  2  0
  5 23  1  0
 23 24  2  0
  2 24  1  0
M  END
> <Library>
Bioactives

> <Batch>
2012

> <PLATE>
B1002L2012M01

> <WELL>
K10

> <EOS>
EOS100478

> <CCMF_source_vial_barcode>
LV2001695766

> <concentration_mM>
10

> <volume_ul>
30

$$$$
EOS100479
  SciTegic04282016392D

 26 28  0  0  0  0            999 V2000
    0.0000    3.7125    0.0000 N   0  0
    0.0000    2.8875    0.0000 C   0  0
    0.7144    2.4750    0.0000 C   0  0
    1.4290    2.8875    0.0000 C   0  0
    1.4290    3.7125    0.0000 C   0  0
    0.7144    4.1250    0.0000 C   0  0
    0.7144    1.6500    0.0000 C   0  0
    0.0000    1.2375    0.0000 C   0  0
    0.0000    0.4125    0.0000 C   0  0
    0.7144    0.0000    0.0000 C   0  0
    1.4290    0.4125    0.0000 C   0  0
    1.4290    1.2375    0.0000 C   0  0
    0.7144    4.9500    0.0000 N   0  0
    2.1434    4.1250    0.0000 C   0  0
    2.1434    0.0000    0.0000 O   0  0
    2.8579    3.7125    0.0000 C   0  0
    3.5724    4.1250    0.0000 C   0  0
    3.5724    4.9500    0.0000 C   0  0
    2.8579    5.3625    0.0000 C   0  0
    2.1434    4.9500    0.0000 C   0  0
    2.8579    6.1875    0.0000 O   0  0
    2.1434    6.6000    0.0000 C   0  0
    4.2868    5.3625    0.0000 O   0  0
    4.2868    6.1875    0.0000 C   0  0
    4.2868    3.7125    0.0000 O   0  0
    4.2868    2.8875    0.0000 C   0  0
  1  2  2  0
  2  3  1  0
  3  4  2  0
  4  5  1  0
  5  6  2  0
  6  1  1  0
  3  7  1  0
  7  8  2  0
  8  9  1  0
  9 10  2  0
 10 11  1  0
 11 12  2  0
 12  7  1  0
  6 13  1  0
  5 14  1  0
 11 15  1  0
 14 16  2  0
 16 17  1  0
 17 18  2  0
 18 19  1  0
 19 20  2  0
 20 14  1  0
 19 21  1  0
 21 22  1  0
 18 23  1  0
 23 24  1  0
 17 25  1  0
 25 26  1  0
M  END
> <Library>
Bioactives

> <Batch>
2012

> <PLATE>
B1002L2012M01

> <WELL>
M10

> <EOS>
EOS100479

> <CCMF_source_vial_barcode>
LV2001696416

> <concentration_mM>
10

> <volume_ul>
30

$$$$
EOS100480
  SciTegic04282016392D

 41 43  0  0  1  0            999 V2000
    8.1333   -0.2842    0.0000 F   0  0
    7.8357    0.8440    0.0000 F   0  0
    7.0051   -0.5818    0.0000 F   0  0
    1.9520   -2.8471    0.0000 F   0  0
    2.7770   -4.2761    0.0000 F   0  0
    1.6500   -3.9741    0.0000 F   0  0
    5.6350   -2.8471    0.0000 F   0  0
    4.8099   -4.2761    0.0000 F   0  0
    5.9370   -3.9741    0.0000 F   0  0
    3.7935    3.0385    0.0000 O   0  0
    5.2224   -1.9116    0.0000 O   0  0
    5.2224    3.0385    0.0000 O   0  0
    5.9370   -0.6740    0.0000 O   0  0
    4.5080    1.8010    0.0000 N   0  0
    4.5080   -0.6740    0.0000 N   0  0
    3.7935    1.3885    0.0000 C   0  0  1  0  0  0
    4.5080    0.1510    0.0000 C   0  0  1  0  0  0
    3.7935    0.5635    0.0000 C   0  0
    5.2224    0.5635    0.0000 C   0  0
    5.2224    1.3885    0.0000 C   0  0
    3.0791    1.8010    0.0000 C   0  0
    5.9600    0.1224    0.0000 C   0  0
    3.7935   -1.0865    0.0000 C   0  0
    5.9600    1.8296    0.0000 C   0  0
    2.3645    1.3885    0.0000 C   0  0
    4.5080    2.6260    0.0000 C   0  0
    6.7075    0.5463    0.0000 C   0  0
    6.7075    1.4057    0.0000 C   0  0
    5.2224   -1.0865    0.0000 C   0  0
    3.7935   -1.9116    0.0000 C   0  0
    7.4204    0.1311    0.0000 C   0  0
    4.5080   -2.3241    0.0000 C   0  0
    3.0791   -2.3241    0.0000 C   0  0
    4.5080   -3.1491    0.0000 C   0  0
    3.0791   -3.1491    0.0000 C   0  0
    3.7935    3.8636    0.0000 C   0  0
    3.7935   -3.5616    0.0000 C   0  0
    5.9370   -2.3241    0.0000 C   0  0
    2.3645   -3.5616    0.0000 C   0  0
    5.2224   -3.5616    0.0000 C   0  0
    3.0791    4.2761    0.0000 C   0  0
  1 31  1  0
  2 31  1  0
  3 31  1  0
  4 39  1  0
  5 39  1  0
  6 39  1  0
  7 40  1  0
  8 40  1  0
  9 40  1  0
 10 26  1  0
 10 36  1  0
 11 29  1  0
 11 38  1  0
 12 26  2  0
 13 29  2  0
 16 14  1  0
 14 20  1  0
 14 26  1  0
 17 15  1  1
 15 23  1  0
 15 29  1  0
 16 18  1  0
 16 21  1  1
 17 18  1  0
 17 19  1  0
 19 20  2  0
 19 22  1  0
 20 24  1  0
 21 25  1  0
 22 27  2  0
 23 30  1  0
 24 28  2  0
 27 28  1  0
 27 31  1  0
 30 32  2  0
 30 33  1  0
 32 34  1  0
 33 35  2  0
 34 37  2  0
 34 40  1  0
 35 37  1  0
 35 39  1  0
 36 41  1  0
M  END
> <Library>
Bioactives

> <Batch>
2012

> <PLATE>
B1002L2012M01

> <WELL>
O10

> <EOS>
EOS100480

> <CCMF_source_vial_barcode>
LV2001696398

> <concentration_mM>
10

> <volume_ul>
30

$$$$
EOS100481
  SciTegic04282016392D

 44 48  0  0  0  0            999 V2000
   -1.0718    1.4439    0.0000 C   0  0
   -1.7862    1.0314    0.0000 C   0  0
   -2.5007    1.4439    0.0000 C   0  0
   -2.5007    2.2689    0.0000 C   0  0
   -1.7862    2.6814    0.0000 C   0  0
   -1.0718    2.2689    0.0000 C   0  0
    0.3572    1.4439    0.0000 C   0  0
   -0.3572    1.0314    0.0000 C   0  0
    0.3572    2.2689    0.0000 O   0  0
    1.0718    1.0314    0.0000 N   0  0
   -3.2152    2.6814    0.0000 O   0  0
   -3.9303    2.2689    0.0000 C   0  0
   -4.6448    1.8563    0.0000 F   0  0
   -3.9303    1.4439    0.0000 F   0  0
   -4.6448    2.6814    0.0000 F   0  0
    1.7862    1.4439    0.0000 C   0  0
    2.5007    0.2063    0.0000 C   0  0
    2.5007    1.0314    0.0000 C   0  0
    3.2152    1.4439    0.0000 C   0  0
    3.9303    1.0314    0.0000 C   0  0
    3.9303    0.2063    0.0000 C   0  0
    3.2152   -0.2063    0.0000 N   0  0
    1.0718    0.2063    0.0000 C   0  0  2  0  0  0
    1.7862   -0.2063    0.0000 C   0  0
    0.3572   -0.2063    0.0000 C   0  0
   -0.3572    0.2063    0.0000 N   0  0
   -1.0718   -0.2063    0.0000 C   0  0
   -1.0718   -1.0314    0.0000 C   0  0
   -0.3572   -1.4439    0.0000 C   0  0
    0.3572   -1.0314    0.0000 N   0  0
   -1.7862   -1.4439    0.0000 C   0  0
   -2.5007   -1.0314    0.0000 C   0  0
   -2.5007   -0.2063    0.0000 C   0  0
   -1.7862    0.2063    0.0000 N   0  0
   -0.3572   -2.2689    0.0000 O   0  0
    1.0718   -1.4439    0.0000 C   0  0
    1.7862   -1.0314    0.0000 C   0  0
    2.5007   -1.4439    0.0000 C   0  0
    2.5007   -2.2689    0.0000 C   0  0
    1.7862   -2.6814    0.0000 C   0  0
    1.0718   -2.2689    0.0000 C   0  0
    3.2152   -2.6814    0.0000 O   0  0
    3.9303   -2.2689    0.0000 C   0  0
    4.6448   -2.6814    0.0000 C   0  0
  1  2  2  0
  2  3  1  0
  3  4  2  0
  4  5  1  0
  5  6  2  0
  1  6  1  0
  7  8  1  0
  7  9  2  0
  7 10  1  0
  1  8  1  0
 11 12  1  0
 12 13  1  0
 12 14  1  0
 12 15  1  0
  4 11  1  0
 17 18  2  0
 18 19  1  0
 19 20  2  0
 20 21  1  0
 21 22  2  0
 17 22  1  0
 16 18  1  0
 10 16  1  0
 23 24  1  6
 25 26  2  0
 26 27  1  0
 27 28  1  0
 28 29  1  0
 29 30  1  0
 25 30  1  0
 31 32  1  0
 32 33  2  0
 33 34  1  0
 27 34  2  0
 28 31  2  0
 29 35  2  0
 36 37  2  0
 37 38  1  0
 38 39  2  0
 39 40  1  0
 40 41  2  0
 36 41  1  0
 43 44  1  0
 42 43  1  0
 39 42  1  0
 30 36  1  0
 23 25  1  0
 23 10  1  0
M  END
> <Library>
Bioactives

> <Batch>
2012

> <PLATE>
B1002L2012M01

> <WELL>
A12

> <EOS>
EOS100481

> <CCMF_source_vial_barcode>
LV2001696399

> <concentration_mM>
10

> <volume_ul>
30

$$$$
EOS100482
  SciTegic04282016392D

 31 34  0  0  1  0            999 V2000
   -7.7335    0.2964    0.0000 Cl  0  0
   -6.9130    0.3827    0.0000 C   0  0
   -6.5775    1.1364    0.0000 C   0  0
   -5.7570    1.2226    0.0000 C   0  0
   -5.4214    1.9763    0.0000 N   0  0
   -4.6009    2.0625    0.0000 C   0  0
   -4.2654    2.8162    0.0000 C   0  0
   -4.6779    3.5306    0.0000 C   0  0
   -4.1259    4.1437    0.0000 C   0  0
   -3.3722    3.8082    0.0000 C   0  0
   -2.6577    4.2207    0.0000 C   0  0
   -1.9432    3.8082    0.0000 N   0  0
   -1.2288    4.2207    0.0000 C   0  0  2  0  0  0
   -0.5143    3.8082    0.0000 C   0  0
    0.2002    4.2207    0.0000 N   0  0
    0.9146    3.8082    0.0000 C   0  0
    1.7396    3.8082    0.0000 C   0  0
    1.3271    3.0937    0.0000 C   0  0
   -0.5143    2.9832    0.0000 O   0  0
   -1.2288    5.0457    0.0000 C   0  0
   -0.5143    5.4582    0.0000 C   0  0
   -0.4281    6.2787    0.0000 C   0  0
    0.3789    6.4502    0.0000 C   0  0
    0.7914    5.7357    0.0000 C   0  0
    0.2394    5.1226    0.0000 C   0  0
   -2.6577    5.0457    0.0000 O   0  0
   -3.4584    2.9877    0.0000 S   0  0
   -5.2721    0.5551    0.0000 C   0  0
   -4.4516    0.6414    0.0000 C   0  0
   -5.6076   -0.1985    0.0000 N   0  0
   -6.4281   -0.2848    0.0000 C   0  0
  1  2  1  0
  2  3  2  0
  3  4  1  0
  4  5  1  0
  5  6  1  0
  6  7  1  0
  7  8  2  0
  8  9  1  0
  9 10  2  0
 10 11  1  0
 11 12  1  0
 13 12  1  1
 13 14  1  0
 14 15  1  0
 15 16  1  0
 16 17  1  0
 17 18  1  0
 16 18  1  0
 14 19  2  0
 13 20  1  0
 20 21  1  0
 21 22  1  0
 22 23  1  0
 23 24  1  0
 24 25  1  0
 21 25  1  0
 11 26  2  0
 10 27  1  0
  7 27  1  0
  4 28  2  0
 28 29  1  0
 28 30  1  0
 30 31  2  0
  2 31  1  0
M  END
> <Library>
Bioactives

> <Batch>
2012

> <PLATE>
B1002L2012M01

> <WELL>
C12

> <EOS>
EOS100482

> <CCMF_source_vial_barcode>
LV2001695754

> <concentration_mM>
10

> <volume_ul>
30

$$$$
EOS100483
  SciTegic04282016392D

 34 37  0  0  0  0            999 V2000
   -4.9500   -0.1332    0.0000 N   0  0
   -4.9923   -0.9571    0.0000 C   0  0
   -4.2999   -1.4057    0.0000 N   0  0
   -3.5652   -1.0304    0.0000 C   0  0
   -3.5652   -0.2063    0.0000 C   0  0
   -4.2999    0.2422    0.0000 C   0  0
   -2.8516   -1.4423    0.0000 N   0  0
   -2.1379   -1.0304    0.0000 C   0  0
   -2.1379   -0.2063    0.0000 C   0  0
   -2.8516    0.2057    0.0000 C   0  0
   -1.4260    0.2048    0.0000 C   0  0
   -0.7139   -0.2063    0.0000 N   0  0
   -0.0019    0.2048    0.0000 C   0  0
    0.7126   -0.2078    0.0000 C   0  0
    1.4272    0.2048    0.0000 C   0  0
    1.4272    1.0298    0.0000 C   0  0
    0.7126    1.4423    0.0000 C   0  0
   -0.0019    1.0298    0.0000 C   0  0
   -0.7139    1.4409    0.0000 Cl  0  0
    2.1392   -0.2063    0.0000 C   0  0
    2.8512    0.2048    0.0000 N   0  0
    3.5633   -0.2063    0.0000 C   0  0
    4.2753    0.2048    0.0000 C   0  0
    4.9899   -0.2078    0.0000 C   0  0
    5.7044    0.2048    0.0000 C   0  0
    5.7044    1.0298    0.0000 C   0  0
    4.9899    1.4423    0.0000 C   0  0
    4.2753    1.0298    0.0000 C   0  0
    6.4164   -0.2063    0.0000 Cl  0  0
    2.1392   -1.0286    0.0000 O   0  0
   -1.4260    1.0270    0.0000 O   0  0
   -1.4260   -1.4414    0.0000 O   0  0
   -5.7044   -1.3682    0.0000 O   0  0
   -6.4164   -0.9571    0.0000 C   0  0
  1  2  2  0
  2  3  1  0
  3  4  2  0
  4  5  1  0
  5  6  2  0
  6  1  1  0
  4  7  1  0
  7  8  2  0
  8  9  1  0
  9 10  2  0
 10  5  1  0
  9 11  1  0
 11 12  1  0
 12 13  1  0
 13 14  2  0
 14 15  1  0
 15 16  2  0
 16 17  1  0
 17 18  2  0
 18 13  1  0
 18 19  1  0
 15 20  1  0
 20 21  1  0
 21 22  1  0
 22 23  1  0
 23 24  2  0
 24 25  1  0
 25 26  2  0
 26 27  1  0
 27 28  2  0
 28 23  1  0
 25 29  1  0
 20 30  2  0
 11 31  2  0
  8 32  1  0
  2 33  1  0
 33 34  1  0
M  END
> <Library>
Bioactives

> <Batch>
2012

> <PLATE>
B1002L2012M01

> <WELL>
E12

> <EOS>
EOS100483

> <CCMF_source_vial_barcode>
LV2001696302

> <concentration_mM>
10

> <volume_ul>
30

$$$$
EOS100484
  SciTegic04282016392D

 24 26  0  0  0  0            999 V2000
   -2.7512   -1.7116    0.0000 O   0  0
   -2.0367   -1.2991    0.0000 C   0  0
   -1.3222   -1.7116    0.0000 N   0  0
   -1.3222   -2.5366    0.0000 N   0  0
   -2.0367   -2.9491    0.0000 C   0  0
   -2.0367   -3.7741    0.0000 C   0  0
   -1.3693   -4.2590    0.0000 C   0  0
   -1.6242   -5.0437    0.0000 C   0  0
   -2.4492   -5.0437    0.0000 C   0  0
   -2.9341   -5.7111    0.0000 C   0  0
   -2.7041   -4.2590    0.0000 O   0  0
   -2.0367   -0.4741    0.0000 C   0  0
   -2.7512   -0.0616    0.0000 C   0  0
   -3.4656   -0.4741    0.0000 O   0  0
   -4.1801   -0.0616    0.0000 C   0  0
   -4.8946   -0.4741    0.0000 C   0  0
   -5.6091   -0.0616    0.0000 C   0  0
   -5.6091    0.7634    0.0000 C   0  0
   -4.8946    1.1759    0.0000 C   0  0
   -4.1801    0.7634    0.0000 C   0  0
   -2.7512    0.7634    0.0000 C   0  0
   -2.0367    1.1759    0.0000 C   0  0
   -1.3222    0.7634    0.0000 C   0  0
   -1.3222   -0.0616    0.0000 C   0  0
  1  2  2  0
  2  3  1  0
  3  4  1  0
  4  5  2  0
  5  6  1  0
  6  7  2  0
  7  8  1  0
  8  9  2  0
  9 10  1  0
  9 11  1  0
  6 11  1  0
  2 12  1  0
 12 13  2  0
 13 14  1  0
 14 15  1  0
 15 16  2  0
 16 17  1  0
 17 18  2  0
 18 19  1  0
 19 20  2  0
 15 20  1  0
 13 21  1  0
 21 22  2  0
 22 23  1  0
 23 24  2  0
 12 24  1  0
M  END
> <Library>
Bioactives

> <Batch>
2012

> <PLATE>
B1002L2012M01

> <WELL>
G12

> <EOS>
EOS100484

> <CCMF_source_vial_barcode>
LV2001696390

> <concentration_mM>
10

> <volume_ul>
30

$$$$
EOS100485
  SciTegic04282016392D

 35 38  0  0  0  0            999 V2000
   -5.7158    4.9500    0.0000 C   0  0
   -5.0013    4.5375    0.0000 N   0  0
   -4.2868    4.9500    0.0000 C   0  0
   -3.5724    4.5375    0.0000 C   0  0
   -5.0013    3.7125    0.0000 C   0  0
   -4.2868    3.3000    0.0000 C   0  0
   -3.5724    3.7125    0.0000 C   0  0
   -2.8579    3.3000    0.0000 N   0  0
   -2.1434    3.7125    0.0000 C   0  0
   -1.4289    3.3000    0.0000 C   0  0
   -0.7145    3.7125    0.0000 C   0  0
    0.0000    3.3000    0.0000 C   0  0
    0.0000    2.4750    0.0000 C   0  0
    0.7145    2.0625    0.0000 O   0  0
    1.4289    2.4750    0.0000 C   0  0
    2.1434    2.0625    0.0000 C   0  0
    2.8579    2.4750    0.0000 C   0  0
    3.5724    2.0625    0.0000 N   0  0
    4.2868    2.4750    0.0000 C   0  0
    3.5724    1.2375    0.0000 C   0  0
   -0.7145    2.0625    0.0000 C   0  0
   -0.7145    1.2375    0.0000 O   0  0
   -1.4289    0.8250    0.0000 C   0  0
   -1.4289    2.4750    0.0000 C   0  0
   -0.7145    4.5375    0.0000 N   0  0
   -1.4289    4.9500    0.0000 C   0  0
   -1.4289    5.7750    0.0000 N   0  0
   -2.1722    6.1330    0.0000 C   0  0
   -2.3558    6.9373    0.0000 C   0  0
   -1.8414    7.5823    0.0000 C   0  0
   -1.0164    7.5823    0.0000 N   0  0
   -0.6585    8.3256    0.0000 C   0  0
   -0.5021    6.9373    0.0000 C   0  0
   -0.6856    6.1330    0.0000 C   0  0
   -2.1434    4.5375    0.0000 N   0  0
  1  2  1  0
  2  3  1  0
  3  4  1  0
  2  5  1  0
  5  6  1  0
  6  7  1  0
  4  7  1  0
  7  8  1  0
  8  9  1  0
  9 10  1  0
 10 11  1  0
 11 12  2  0
 12 13  1  0
 13 14  1  0
 14 15  1  0
 15 16  1  0
 16 17  1  0
 17 18  1  0
 18 19  1  0
 18 20  1  0
 13 21  2  0
 21 22  1  0
 22 23  1  0
 21 24  1  0
 10 24  2  0
 11 25  1  0
 25 26  2  0
 26 27  1  0
 27 28  1  0
 28 29  1  0
 29 30  1  0
 30 31  1  0
 31 32  1  0
 31 33  1  0
 33 34  1  0
 27 34  1  0
 26 35  1  0
  9 35  2  0
M  END
> <Library>
Bioactives

> <Batch>
2012

> <PLATE>
B1002L2012M01

> <WELL>
I12

> <EOS>
EOS100485

> <CCMF_source_vial_barcode>
LV2001696592

> <concentration_mM>
10

> <volume_ul>
30

$$$$
EOS100486
  SciTegic04282016392D

 35 39  0  0  0  0            999 V2000
    0.0000   -2.4750    0.0000 C   0  0
    0.0000   -1.6500    0.0000 N   0  0
    0.7145   -1.2375    0.0000 C   0  0
    0.7145   -0.4125    0.0000 N   0  0
    1.4289    0.0000    0.0000 C   0  0
    2.1434   -0.4125    0.0000 C   0  0
    2.8579    0.0000    0.0000 C   0  0
    3.5724   -0.4125    0.0000 C   0  0
    4.2868    0.0000    0.0000 C   0  0
    4.2868    0.8250    0.0000 C   0  0
    3.5724    1.2375    0.0000 Cl  0  0
    5.0013    1.2375    0.0000 C   0  0
    5.7158    0.8250    0.0000 C   0  0
    6.4302    1.2375    0.0000 C   0  0
    6.4302    2.0625    0.0000 N   0  0
    7.1447    2.4750    0.0000 C   0  0
    7.1447    3.3000    0.0000 C   0  0
    7.8592    2.0625    0.0000 C   0  0
    7.8592    1.2375    0.0000 C   0  0
    7.1447    0.8250    0.0000 C   0  0
    5.7158    0.0000    0.0000 C   0  0
    5.0013   -0.4125    0.0000 C   0  0
    3.5724   -1.2375    0.0000 C   0  0
    2.8579   -1.6500    0.0000 N   0  0
    2.8579   -2.4750    0.0000 C   0  0
    2.1434   -2.8875    0.0000 C   0  0  2  0  0  0
    2.1434   -3.7125    0.0000 O   0  0
    1.4289   -4.1250    0.0000 C   0  0
    0.7145   -3.7125    0.0000 C   0  0  1  0  0  0
    0.0000   -4.1250    0.0000 N   0  0
    0.7145   -2.8875    0.0000 C   0  0
    1.4289   -2.4750    0.0000 O   0  0
    4.2868   -1.6500    0.0000 O   0  0
    2.1434   -1.2375    0.0000 C   0  0
    1.4289   -1.6500    0.0000 N   0  0
  1  2  1  0
  2  3  1  0
  3  4  2  0
  4  5  1  0
  5  6  2  0
  6  7  1  0
  7  8  2  0
  8  9  1  0
  9 10  2  0
 10 11  1  0
 10 12  1  0
 12 13  2  0
 13 14  1  0
 14 15  2  0
 15 16  1  0
 16 17  1  0
 16 18  2  0
 18 19  1  0
 19 20  2  0
 14 20  1  0
 13 21  1  0
 21 22  2  0
  9 22  1  0
  8 23  1  0
 23 24  1  0
 24 25  1  0
 26 25  1  6
 26 27  1  0
 27 28  1  0
 29 28  1  0
 29 30  1  1
 29 31  1  0
 31 32  1  0
 26 32  1  0
 23 33  2  0
  6 34  1  0
 24 34  1  0
 34 35  2  0
  3 35  1  0
M  END
> <Library>
Bioactives

> <Batch>
2012

> <PLATE>
B1002L2012M01

> <WELL>
K12

> <EOS>
EOS100486

> <CCMF_source_vial_barcode>
LV2001695210

> <concentration_mM>
10

> <volume_ul>
30

$$$$
EOS100487
  SciTegic04282016392D

 30 33  0  0  1  0            999 V2000
    4.7812    1.1104    0.0000 C   0  0
    4.7812    1.9354    0.0000 C   0  0  2  0  0  0
    5.4957    2.3479    0.0000 C   0  0
    5.4957    3.1729    0.0000 N   0  0
    4.7812    3.5854    0.0000 C   0  0
    4.0668    3.1729    0.0000 C   0  0
    4.0668    2.3479    0.0000 N   0  0
    3.3523    1.9354    0.0000 C   0  0
    3.3523    1.1104    0.0000 C   0  0
    4.0668    0.6979    0.0000 N   0  0
    4.0668   -0.1271    0.0000 C   0  0
    3.3523   -0.5396    0.0000 C   0  0
    2.6378   -0.1271    0.0000 C   0  0
    1.9233   -0.5396    0.0000 C   0  0
    1.9233   -1.3646    0.0000 C   0  0
    2.6378   -1.7771    0.0000 C   0  0
    3.3523   -1.3646    0.0000 C   0  0
    4.0668   -1.7771    0.0000 O   0  0
    4.7812   -1.3646    0.0000 C   0  0
    4.7812   -0.5396    0.0000 O   0  0
    2.6378    0.6979    0.0000 C   0  0
    1.9233    1.1104    0.0000 C   0  0
    1.9233    1.9354    0.0000 C   0  0
    1.1387    2.1904    0.0000 N   0  0
    0.8838    2.9750    0.0000 C   0  0
    0.6538    1.5229    0.0000 C   0  0
    1.1387    0.8555    0.0000 N   0  0
    0.8838    0.0709    0.0000 C   0  0
   -0.1712    1.5229    0.0000 O   0  0
    2.6378    2.3479    0.0000 C   0  0
  2  1  1  1
  2  3  1  0
  3  4  1  0
  4  5  1  0
  5  6  1  0
  2  7  1  0
  6  7  1  0
  7  8  1  0
  8  9  2  0
  9 10  1  0
 10 11  1  0
 11 12  1  0
 12 13  2  0
 13 14  1  0
 14 15  2  0
 15 16  1  0
 16 17  2  0
 12 17  1  0
 17 18  1  0
 18 19  1  0
 11 20  2  0
  9 21  1  0
 21 22  2  0
 22 23  1  0
 23 24  1  0
 24 25  1  0
 24 26  1  0
 26 27  1  0
 22 27  1  0
 27 28  1  0
 26 29  2  0
 23 30  2  0
  8 30  1  0
M  END
> <Library>
Bioactives

> <Batch>
2012

> <PLATE>
B1002L2012M01

> <WELL>
M12

> <EOS>
EOS100487

> <CCMF_source_vial_barcode>
LV2001695746

> <concentration_mM>
10

> <volume_ul>
30

$$$$
EOS100488
  SciTegic04282016392D

 38 42  0  0  0  0            999 V2000
    0.3921   -2.1097    0.0000 O   0  0
    0.4783   -1.2892    0.0000 C   0  0
   -0.1891   -0.8043    0.0000 C   0  0  2  0  0  0
   -0.9737   -1.0592    0.0000 N   0  0
   -1.4587   -0.3918    0.0000 C   0  0  2  0  0  0
   -2.2837   -0.3918    0.0000 C   0  0
   -2.6962   -1.1063    0.0000 C   0  0
   -2.2837   -1.8207    0.0000 C   0  0
   -3.1087   -1.8207    0.0000 C   0  0
   -3.5212   -1.1063    0.0000 C   0  0
   -0.1891    0.0207    0.0000 C   0  0  2  0  0  0
    0.8387    0.7675    0.0000 C   0  0
    1.5924    0.4319    0.0000 C   0  0
    2.2599    0.9168    0.0000 C   0  0
    2.1736    1.7373    0.0000 C   0  0
    1.4200    2.0729    0.0000 C   0  0
    1.3337    2.8934    0.0000 Cl  0  0
    0.7525    1.5880    0.0000 C   0  0
   -0.0012    1.9235    0.0000 F   0  0
   -0.9737    0.2756    0.0000 C   0  0  1  0  0  0
   -0.4888    0.9431    0.0000 C   0  0
   -0.9737    1.6105    0.0000 N   0  0
   -1.7584    1.3556    0.0000 C   0  0
   -1.7584    0.5306    0.0000 C   0  0
   -2.4728    0.1181    0.0000 C   0  0
   -3.1873    0.5306    0.0000 C   0  0
   -3.1873    1.3556    0.0000 C   0  0
   -3.9018    1.7681    0.0000 Cl  0  0
   -2.4728    1.7681    0.0000 C   0  0
    0.3362    0.9431    0.0000 O   0  0
    1.2320   -0.9537    0.0000 N   0  0
    1.8994   -1.4386    0.0000 C   0  0  1  0  0  0
    2.6531   -1.1030    0.0000 C   0  0
    3.3206   -1.5880    0.0000 C   0  0
    3.2343   -2.4084    0.0000 C   0  0  2  0  0  0
    3.9018   -2.8934    0.0000 O   0  0
    2.4806   -2.7440    0.0000 C   0  0
    1.8132   -2.2591    0.0000 C   0  0
  1  2  2  0
  3  2  1  6
  3  4  1  0
  5  4  1  0
  5  6  1  6
  6  7  1  0
  7  8  1  0
  7  9  1  0
  7 10  1  0
 11  3  1  0
 11 12  1  1
 12 13  2  0
 13 14  1  0
 14 15  2  0
 15 16  1  0
 16 17  1  0
 16 18  2  0
 12 18  1  0
 18 19  1  0
 11 20  1  0
 20  5  1  0
 20 21  1  6
 21 22  1  0
 22 23  1  0
 23 24  2  0
 20 24  1  0
 24 25  1  0
 25 26  2  0
 26 27  1  0
 27 28  1  0
 27 29  2  0
 23 29  1  0
 21 30  2  0
  2 31  1  0
 32 31  1  1
 32 33  1  0
 33 34  1  0
 35 34  1  0
 35 36  1  6
 35 37  1  0
 37 38  1  0
 32 38  1  0
M  END
> <Library>
Bioactives

> <Batch>
2012

> <PLATE>
B1002L2012M01

> <WELL>
O12

> <EOS>
EOS100488

> <CCMF_source_vial_barcode>
LV2001695792

> <concentration_mM>
10

> <volume_ul>
30

$$$$
EOS100489
  SciTegic04282016392D

 30 33  0  0  0  0            999 V2000
   -0.3572    2.8875    0.0000 O   0  0
   -0.3572    2.0625    0.0000 C   0  0
   -1.0717    1.6500    0.0000 C   0  0
   -1.0717    0.8250    0.0000 C   0  0
   -1.7862    0.4125    0.0000 N   0  0
   -2.5006    0.8250    0.0000 C   0  0  2  0  0  0
   -2.5006    1.6500    0.0000 C   0  0
   -3.2151    0.4125    0.0000 C   0  0
   -3.2151   -0.4125    0.0000 O   0  0
   -2.5006   -0.8250    0.0000 C   0  0
   -1.7862   -0.4125    0.0000 C   0  0
   -0.3572    0.4125    0.0000 N   0  0
    0.3572    0.8250    0.0000 C   0  0
    1.0717    0.4125    0.0000 N   0  0
    1.0717   -0.4125    0.0000 C   0  0
    0.3572   -0.8250    0.0000 C   0  0
    0.3572   -1.6500    0.0000 C   0  0
   -0.3572   -2.0625    0.0000 C   0  0
   -0.3572   -2.8875    0.0000 Cl  0  0
   -1.0717   -1.6500    0.0000 C   0  0
   -1.0717   -0.8250    0.0000 N   0  0
   -0.3572   -0.4125    0.0000 C   0  0
    1.7862    0.8250    0.0000 C   0  0  2  0  0  0
    2.5006    0.4125    0.0000 C   0  0
    2.5006   -0.4125    0.0000 F   0  0
    3.2151    0.0000    0.0000 F   0  0
    3.2151    0.8250    0.0000 F   0  0
    1.7862    1.6500    0.0000 C   0  0
    1.0717    2.0625    0.0000 C   0  0
    0.3572    1.6500    0.0000 N   0  0
  1  2  2  0
  2  3  1  0
  3  4  2  0
  4  5  1  0
  6  5  1  0
  6  7  1  1
  6  8  1  0
  8  9  1  0
  9 10  1  0
 10 11  1  0
  5 11  1  0
  4 12  1  0
 12 13  2  0
 13 14  1  0
 14 15  1  0
 15 16  1  0
 16 17  2  0
 17 18  1  0
 18 19  1  0
 18 20  2  0
 20 21  1  0
 21 22  2  0
 16 22  1  0
 23 14  1  0
 23 24  1  1
 24 25  1  0
 24 26  1  0
 24 27  1  0
 23 28  1  0
 28 29  1  0
 29 30  1  0
 13 30  1  0
  2 30  1  0
M  END
> <Library>
Bioactives

> <Batch>
2012

> <PLATE>
B1002L2012M01

> <WELL>
A14

> <EOS>
EOS100489

> <CCMF_source_vial_barcode>
LV2001695755

> <concentration_mM>
10

> <volume_ul>
30

$$$$
EOS100490
  SciTegic04282016392D

 19 21  0  0  0  0            999 V2000
   -0.6750    0.2066    0.0000 N   0  0
   -0.1998    0.8678    0.0000 N   0  0
   -0.3994   -0.5853    0.0000 C   0  0
    0.4270   -0.7507    0.0000 C   0  0
   -0.6750    1.5289    0.0000 N   0  0
   -1.4635    0.4442    0.0000 C   0  0
    0.9676   -0.1274    0.0000 C   0  0
   -1.4635    1.2707    0.0000 C   0  0
    0.6956   -1.5254    0.0000 C   0  0
    1.7768   -0.2755    0.0000 C   0  0
   -0.9366   -1.2087    0.0000 O   0  0
    2.0420   -1.0469    0.0000 C   0  0
    0.6818    0.6646    0.0000 Cl  0  0
    1.5048   -1.6906    0.0000 C   0  0
    2.8786   -1.1915    0.0000 Cl  0  0
   -2.1694    0.0413    0.0000 C   0  0
   -2.1694    1.6941    0.0000 C   0  0
   -2.8821    0.4614    0.0000 C   0  0
   -2.8821    1.2707    0.0000 C   0  0
  2  1  1  0
  3  1  1  0
  4  3  1  0
  5  2  2  0
  6  1  1  0
  7  4  2  0
  8  6  1  0
  9  4  1  0
 10  7  1  0
 11  3  2  0
 12 14  1  0
 13  7  1  0
 14  9  2  0
 15 12  1  0
 16  6  2  0
 17  8  2  0
 18 16  1  0
 19 18  2  0
  8  5  1  0
 17 19  1  0
 10 12  2  0
M  END
> <Library>
Bioactives

> <Batch>
2012

> <PLATE>
B1002L2012M01

> <WELL>
C14

> <EOS>
EOS100490

> <CCMF_source_vial_barcode>
LV2001695194

> <concentration_mM>
10

> <volume_ul>
30

$$$$
EOS100491
  SciTegic04282016392D

 40 44  0  0  0  0            999 V2000
    5.6541   -0.1458    0.0000 C   0  0
    5.6541   -0.8059    0.0000 C   0  0
    6.3679   -1.2194    0.0000 C   0  0
    6.3679   -2.0444    0.0000 C   0  0
    5.6514   -2.4559    0.0000 C   0  0
    4.9389   -2.0422    0.0000 C   0  0
    4.9389   -1.2172    0.0000 C   0  0
    4.2240   -0.8045    0.0000 N   0  0
    4.2240    0.0205    0.0000 C   0  0
    3.5096    0.4331    0.0000 C   0  0
    3.5096    1.2581    0.0000 C   0  0
    2.7951    1.6705    0.0000 N   0  0
    2.0806    1.2581    0.0000 C   0  0
    2.0806    0.4331    0.0000 N   0  0
    2.7951    0.0205    0.0000 C   0  0
    2.7951   -0.8045    0.0000 N   0  0
    3.5096   -1.2170    0.0000 C   0  0
    3.5096   -1.8769    0.0000 O   0  0
    2.2235   -1.1344    0.0000 C   0  0
    1.3649    1.6693    0.0000 N   0  0
    0.6507    1.2555    0.0000 C   0  0
   -0.0653    1.6655    0.0000 C   0  0
   -0.7755    1.2505    0.0000 C   0  0
   -0.7755    0.4255    0.0000 C   0  0
   -0.0596    0.0155    0.0000 N   0  0
    0.6507    0.4305    0.0000 C   0  0
   -1.3459    0.0936    0.0000 C   0  0
    5.6514   -3.2813    0.0000 N   0  0
    4.9323   -3.6919    0.0000 C   0  0
    4.3619   -3.3600    0.0000 O   0  0
    4.9323   -4.5173    0.0000 C   0  0
    4.2142   -4.9287    0.0000 C   0  0
    4.2142   -5.7537    0.0000 C   0  0
    4.9267   -6.1673    0.0000 C   0  0
    5.6419   -5.7560    0.0000 C   0  0
    5.6419   -4.9310    0.0000 C   0  0
    6.3560   -6.1699    0.0000 C   0  0
    6.3560   -6.8299    0.0000 F   0  0
    6.9281   -5.8406    0.0000 F   0  0
    6.9272   -6.5005    0.0000 F   0  0
  1  2  1  0
  2  3  2  0
  3  4  1  0
  4  5  2  0
  5  6  1  0
  6  7  2  0
  7  2  1  0
  7  8  1  0
  8  9  1  0
  9 10  1  0
 10 11  2  0
 11 12  1  0
 12 13  2  0
 13 14  1  0
 14 15  2  0
 15 10  1  0
 15 16  1  0
 16 17  1  0
 17  8  1  0
 17 18  2  0
 16 19  1  0
 13 20  1  0
 20 21  1  0
 21 22  2  0
 22 23  1  0
 23 24  2  0
 24 25  1  0
 25 26  2  0
 26 21  1  0
 24 27  1  0
  5 28  1  0
 28 29  1  0
 29 30  2  0
 29 31  1  0
 31 32  2  0
 32 33  1  0
 33 34  2  0
 34 35  1  0
 35 36  2  0
 36 31  1  0
 35 37  1  0
 37 38  1  0
 37 39  1  0
 37 40  1  0
M  END
> <Library>
Bioactives

> <Batch>
2012

> <PLATE>
B1002L2012M01

> <WELL>
E14

> <EOS>
EOS100491

> <CCMF_source_vial_barcode>
LV2001695758

> <concentration_mM>
10

> <volume_ul>
30

$$$$
EOS100492
  SciTegic04282016392D

 34 34  0  0  1  0            999 V2000
    1.1716    1.9248    0.0000 C   0  0
    1.8770    1.5064    0.0000 N   0  0
   -0.9803    1.4825    0.0000 C   0  0
    3.2997    1.4705    0.0000 C   0  0
   -0.2869    1.9248    0.0000 N   0  0
    0.4304    1.5183    0.0000 C   0  0  1  0  0  0
    2.5943    1.9009    0.0000 C   0  0  2  0  0  0
    4.0170    1.8650    0.0000 C   0  0
   -1.6857    2.6899    0.0000 C   0  0
   -1.6857    1.8889    0.0000 C   0  0  2  0  0  0
    4.7223    1.4346    0.0000 C   0  0
    0.4423    0.6815    0.0000 C   0  0
    1.1597    2.7856    0.0000 O   0  0
   -0.9803    0.6217    0.0000 O   0  0
   -0.9803    3.1084    0.0000 C   0  0
    4.7104    0.6097    0.0000 O   0  0
   -2.3911    1.4705    0.0000 N   0  0
    2.6062    2.7258    0.0000 C   0  0
    5.4396    1.8292    0.0000 O   0  0
    1.8889    0.6815    0.0000 C   0  0
   -2.3911    3.2399    0.0000 C   0  0
   -2.5823    2.5704    0.0000 C   0  0
    4.0289    2.6899    0.0000 C   0  0
    1.3151    0.5619    0.0000 C   0  0
   -0.2869    0.2630    0.0000 C   0  0
    0.9684    0.0359    0.0000 C   0  0
   -0.9803    3.9213    0.0000 C   0  0
   -0.2869    2.6899    0.0000 C   0  0
   -2.3911    0.6575    0.0000 C   0  0
    3.3236    3.1323    0.0000 C   0  0
    1.9009    3.1442    0.0000 C   0  0
   -0.2511    4.3398    0.0000 C   0  0
    0.4543    3.1203    0.0000 C   0  0
    0.4543    3.9213    0.0000 C   0  0
  2  1  1  0
  3  5  1  0
  7  4  1  0
  6  5  1  6
  6  1  1  0
  7  2  1  1
  8  4  2  0
 10  9  1  0
 10  3  1  0
 11  8  1  0
  6 12  1  0
 13  1  2  0
 14  3  2  0
 15  9  1  0
 16 11  2  0
 10 17  1  1
  7 18  1  0
 19 11  1  0
 20  2  1  0
 21  9  1  0
 22  9  1  0
 23  8  1  0
 24 12  1  0
 25 12  1  0
 26 12  1  0
 27 15  2  0
 28 15  1  0
 29 17  1  0
 30 18  1  0
 31 18  1  0
 32 27  1  0
 33 28  2  0
 34 33  1  0
 32 34  2  0
M  END
> <Library>
Bioactives

> <Batch>
2012

> <PLATE>
B1002L2012M01

> <WELL>
G14

> <EOS>
EOS100492

> <CCMF_source_vial_barcode>
LV2001695801

> <concentration_mM>
10

> <volume_ul>
30

$$$$
EOS100493
  SciTegic04282016392D

 22 24  0  0  0  0            999 V2000
   -1.2054    0.9256    0.0000 C   0  0
   -0.3984    0.7541    0.0000 C   0  0
   -0.1435   -0.0305    0.0000 N   0  0
   -0.6284   -0.6979    0.0000 C   0  0
   -0.1435   -1.3654    0.0000 N   0  0
    0.6411   -1.1104    0.0000 C   0  0
    0.6411   -0.2854    0.0000 C   0  0
    1.3556    0.1271    0.0000 N   0  0
    2.0701   -0.2854    0.0000 C   0  0
    2.0701   -1.1104    0.0000 N   0  0
    1.3556   -1.5229    0.0000 C   0  0
    1.3556   -2.3479    0.0000 N   0  0
    0.6411   -2.7604    0.0000 C   0  0
    0.6411   -3.5854    0.0000 C   0  0
   -0.0734   -3.9979    0.0000 C   0  0
   -0.0734   -4.8229    0.0000 F   0  0
   -0.7878   -3.5854    0.0000 C   0  0
   -0.7878   -2.7604    0.0000 C   0  0
   -1.5023   -2.3479    0.0000 F   0  0
   -0.0734   -2.3479    0.0000 C   0  0
    2.7845    0.1271    0.0000 C   0  0
    3.4990    0.5396    0.0000 N   0  0
  1  2  1  0
  2  3  1  0
  3  4  1  0
  4  5  2  0
  5  6  1  0
  6  7  1  0
  3  7  1  0
  7  8  2  0
  8  9  1  0
  9 10  2  0
 10 11  1  0
  6 11  2  0
 11 12  1  0
 12 13  1  0
 13 14  2  0
 14 15  1  0
 15 16  1  0
 15 17  2  0
 17 18  1  0
 18 19  1  0
 18 20  2  0
 13 20  1  0
  9 21  1  0
 21 22  3  0
M  END
> <Library>
Bioactives

> <Batch>
2012

> <PLATE>
B1002L2012M01

> <WELL>
I14

> <EOS>
EOS100493

> <CCMF_source_vial_barcode>
LV2001696417

> <concentration_mM>
10

> <volume_ul>
30

$$$$
EOS100494
  SciTegic04282016392D

 25 26  0  0  0  0            999 V2000
   -0.8349   -0.4755    0.0000 S   0  0
   -4.0541    0.2277    0.0000 C   0  0
   -1.6386   -0.3036    0.0000 C   0  0
   -3.2482    0.0513    0.0000 C   0  0
   -2.1945   -0.9108    0.0000 N   0  0
    1.6632    0.5067    0.0000 C   0  0
   -0.0245   -0.6496    0.0000 C   0  0
   -2.9981   -0.7323    0.0000 C   0  0
   -1.0157   -1.2814    0.0000 O   0  0
   -0.6608    0.3326    0.0000 O   0  0
    2.4602    0.2857    0.0000 C   0  0
   -2.6968    0.6608    0.0000 C   0  0
   -1.8886    0.4867    0.0000 C   0  0
    1.3819    1.2859    0.0000 O   0  0
    1.1944   -0.1674    0.0000 N   0  0
   -3.8844    1.0291    0.0000 F   0  0
   -4.2282   -0.5648    0.0000 F   0  0
   -4.8444    0.4018    0.0000 F   0  0
    2.6611   -0.5112    0.0000 C   0  0
    3.0495    0.8684    0.0000 C   0  0
    0.4041    0.0513    0.0000 C   0  0
    4.0519   -0.1496    0.0000 C   0  0
    3.8442    0.6429    0.0000 C   0  0
    3.4647   -0.7323    0.0000 C   0  0
    4.8444   -0.3706    0.0000 Cl  0  0
  2  4  1  0
  3  1  1  0
  4 12  1  0
  5  3  2  0
  6 15  1  0
  7  1  1  0
  8  5  1  0
  9  1  2  0
 10  1  2  0
 11  6  1  0
 12 13  2  0
 13  3  1  0
 14  6  2  0
 15 21  1  0
 16  2  1  0
 17  2  1  0
 18  2  1  0
 19 11  2  0
 20 11  1  0
 21  7  1  0
 22 23  1  0
 23 20  2  0
 24 19  1  0
 25 22  1  0
  8  4  2  0
 24 22  2  0
M  END
> <Library>
Bioactives

> <Batch>
2012

> <PLATE>
B1002L2012M01

> <WELL>
K14

> <EOS>
EOS100494

> <CCMF_source_vial_barcode>
LV2001696391

> <concentration_mM>
10

> <volume_ul>
30

$$$$
EOS100495
  SciTegic04282016392D

 29 31  0  0  0  0            999 V2000
    2.1434    1.2375    0.0000 C   0  0
    2.1434    0.4125    0.0000 C   0  0
    2.8579    0.0000    0.0000 C   0  0
    3.5724    0.4125    0.0000 C   0  0
    3.5724    1.2375    0.0000 C   0  0
    2.8579    1.6500    0.0000 C   0  0
    1.4290    0.0000    0.0000 O   0  0
    4.2868    1.6500    0.0000 C   0  0
    5.0013    1.2375    0.0000 N   0  0
    4.2868    2.4750    0.0000 O   0  0
    5.7158    1.6500    0.0000 C   0  0
    6.4302    1.2375    0.0000 C   0  0
    7.1447    1.6500    0.0000 C   0  0
    7.8592    1.2375    0.0000 N   0  0
    7.1447    2.4750    0.0000 O   0  0
    8.5736    1.6500    0.0000 C   0  0  1  0  0  0
    9.2881    1.2375    0.0000 C   0  0
   10.0026    1.6500    0.0000 C   0  0
   10.0026    2.4750    0.0000 C   0  0
    9.2881    2.8875    0.0000 C   0  0
    8.5736    2.4750    0.0000 C   0  0
    9.2881    0.4125    0.0000 C   0  0
   10.0026    0.0000    0.0000 C   0  0
   10.7170    0.4125    0.0000 C   0  0
   10.7170    1.2375    0.0000 C   0  0
    0.7144    0.4125    0.0000 C   0  0
    0.0000    0.0000    0.0000 F   0  0
    0.7144    1.2375    0.0000 F   0  0
    0.0000    0.8250    0.0000 F   0  0
  1  2  2  0
  2  3  1  0
  3  4  2  0
  4  5  1  0
  5  6  2  0
  6  1  1  0
  2  7  1  0
  5  8  1  0
  8  9  1  0
  8 10  2  0
  9 11  1  0
 11 12  1  0
 12 13  1  0
 13 14  1  0
 13 15  2  0
 16 14  1  6
 16 17  1  0
 17 18  2  0
 18 19  1  0
 19 20  1  0
 20 21  1  0
 16 21  1  0
 17 22  1  0
 22 23  2  0
 23 24  1  0
 24 25  2  0
 25 18  1  0
  7 26  1  0
 26 27  1  0
 26 28  1  0
 26 29  1  0
M  END
> <Library>
Bioactives

> <Batch>
2012

> <PLATE>
B1002L2012M01

> <WELL>
M14

> <EOS>
EOS100495

> <CCMF_source_vial_barcode>
LV2001695776

> <concentration_mM>
10

> <volume_ul>
30

$$$$
EOS100496
  SciTegic04282016392D

 38 40  0  0  0  0            999 V2000
    4.7248  -29.8566    0.0000 N   0  0
    5.4337  -29.4376    0.0000 C   0  0
    4.7054  -28.2001    0.0000 N   0  0
    1.8629  -30.6881    0.0000 N   0  0
    4.0028  -29.4376    0.0000 C   0  0
    1.8629  -29.8631    0.0000 C   0  0
    4.0028  -28.6190    0.0000 C   0  0
    2.5783  -29.4505    0.0000 C   0  0
    1.1602  -31.1006    0.0000 C   0  0
    3.2938  -29.8631    0.0000 C   0  0
    2.5783  -31.0941    0.0000 C   0  0
    9.7266  -31.0620    0.0000 C   0  0
    2.5783  -31.9128    0.0000 C   0  0
    3.2745  -28.2129    0.0000 C   0  0
    3.2745  -32.3382    0.0000 C   0  0
    6.1492  -29.8437    0.0000 C   0  0
    1.1602  -31.9321    0.0000 N   0  0
    9.0111  -30.6559    0.0000 C   0  0
    9.7331  -31.8935    0.0000 N   0  0
    1.1474  -29.4570    0.0000 O   0  0
    2.5718  -28.6255    0.0000 C   0  0
    6.8647  -29.4311    0.0000 N   0  0
    3.2680  -33.1632    0.0000 O   0  0
    8.2956  -31.0748    0.0000 C   0  0
    8.9983  -29.8244    0.0000 C   0  0
   10.4292  -30.6494    0.0000 N   0  0
    7.5802  -29.8437    0.0000 C   0  0
    4.7054  -27.3686    0.0000 C   0  0
    8.2828  -29.4183    0.0000 C   0  0
    7.5802  -30.6687    0.0000 C   0  0
    4.0028  -31.9321    0.0000 O   0  0
   11.4348  -29.3409    0.0000 Cl  0  0
    0.4448  -30.6945    0.0000 C   0  0
    0.4448  -32.3510    0.0000 C   0  0
    4.7054  -32.3575    0.0000 C   0  0
    5.4337  -31.9515    0.0000 C   0  0
   -0.2707  -31.1135    0.0000 C   0  0
   -0.2707  -31.9321    0.0000 C   0  0
  2  1  2  0
  3  2  1  0
  4  6  1  0
  5  1  1  0
  6  8  1  0
  7  5  1  0
  8 10  1  0
  9  4  1  0
 10  5  2  0
 11  4  1  0
 12 18  1  0
 13 11  1  0
 14  7  2  0
 15 13  1  0
 16  2  1  0
 17  9  2  0
 18 24  2  0
 19 12  2  0
 20  6  2  0
 21  8  2  0
 22 16  1  0
 23 15  2  0
 24 30  1  0
 25 29  2  0
 26 12  1  0
 27 22  1  0
 28  3  1  0
 29 27  1  0
 30 27  2  0
 31 15  1  0
 33  9  1  0
 34 17  1  0
 35 31  1  0
 36 35  1  0
 37 33  2  0
 38 37  1  0
  3  7  1  0
 21 14  1  0
 18 25  1  0
 34 38  2  0
M  END
> <Library>
Bioactives

> <Batch>
2012

> <PLATE>
B1002L2012M01

> <WELL>
O14

> <EOS>
EOS100496

> <CCMF_source_vial_barcode>
LV2001696359

> <concentration_mM>
10

> <volume_ul>
30

$$$$
EOS100497
  SciTegic04282016392D

 28 31  0  0  0  0            999 V2000
   -0.0821    0.2916    0.0000 C   0  0
    1.2817    0.7025    0.0000 N   0  0
    1.5323   -0.0863    0.0000 C   0  0
    0.1767   -0.4971    0.0000 C   0  0
    0.9859   -0.6943    0.0000 N   0  0
    0.4929    0.8832    0.0000 C   0  0
   -0.8873    0.2916    0.0000 C   0  0
   -0.5135   -0.9736    0.0000 S   0  0
   -1.1461   -0.4971    0.0000 C   0  0
    2.3661   -0.2465    0.0000 S   0  0
    3.7012    0.2670    0.0000 C   0  0
    1.8280    1.3145    0.0000 C   0  0
    0.2753    1.6883    0.0000 O   0  0
   -1.4008    0.9366    0.0000 C   0  0
    4.2394    0.8996    0.0000 O   0  0
    3.9970   -0.5217    0.0000 N   0  0
    2.8961    0.4067    0.0000 C   0  0
    3.4671   -1.1502    0.0000 N   0  0
    1.5774    2.0827    0.0000 C   0  0
    2.6414    1.1338    0.0000 C   0  0
   -2.2141    0.8010    0.0000 C   0  0
   -1.1050    1.7089    0.0000 C   0  0
    2.1238    2.7112    0.0000 C   0  0
    3.1713    1.7705    0.0000 C   0  0
   -1.6226    2.3374    0.0000 C   0  0
   -2.7440    1.4501    0.0000 C   0  0
   -2.4278    2.2183    0.0000 C   0  0
    2.9125    2.5345    0.0000 C   0  0
  2  6  1  0
  3  2  1  0
  4  1  2  0
  5  4  1  0
  6  1  1  0
  7  1  1  0
  8  4  1  0
  9  7  2  0
 10  3  1  0
 11 17  1  0
 12  2  1  0
 13  6  2  0
 14  7  1  0
 15 11  2  0
 16 11  1  0
 17 10  1  0
 18 16  1  0
 19 12  2  0
 20 12  1  0
 21 14  2  0
 22 14  1  0
 23 19  1  0
 24 20  2  0
 25 22  2  0
 26 21  1  0
 27 25  1  0
 28 24  1  0
  9  8  1  0
  3  5  2  0
 27 26  2  0
 28 23  2  0
M  END
> <Library>
Bioactives

> <Batch>
2012

> <PLATE>
B1002L2012M01

> <WELL>
A16

> <EOS>
EOS100497

> <CCMF_source_vial_barcode>
LV2001696418

> <concentration_mM>
10

> <volume_ul>
30

$$$$
EOS100498
  SciTegic04282016392D

 27 30  0  0  0  0            999 V2000
    0.7139   -0.8498    0.0000 C   0  0
   -0.5460   -0.4200    0.0000 C   0  0
    0.2396   -1.4872    0.0000 S   0  0
    0.2396   -0.1778    0.0000 C   0  0
   -0.5460   -1.2452    0.0000 C   0  0
   -1.2574    0.0000    0.0000 C   0  0
   -1.2574   -1.6650    0.0000 N   0  0
   -1.9887   -1.2798    0.0000 C   0  0
    1.5440   -0.8498    0.0000 S   0  0
   -1.9887   -0.4200    0.0000 C   0  0
   -2.7003   -1.6650    0.0000 C   0  0
   -3.0361   -2.4506    0.0000 S   0  0
   -1.2574    0.8250    0.0000 C   0  0
    0.5015    0.6078    0.0000 N   0  0
   -3.3176   -1.1314    0.0000 C   0  0
    1.9442   -0.1384    0.0000 O   0  0
   -3.8414   -2.3469    0.0000 C   0  0
   -4.0045   -1.5614    0.0000 C   0  0
    1.9442   -1.6008    0.0000 C   0  0
   -1.9688    1.2105    0.0000 C   0  0
   -0.5460    1.2105    0.0000 C   0  0
    2.7445   -1.6008    0.0000 C   0  0
    3.1743   -2.3123    0.0000 C   0  0
    4.0045   -2.3123    0.0000 C   0  0
   -1.9887    2.0356    0.0000 C   0  0
   -0.5460    2.0702    0.0000 C   0  0
   -1.2574    2.4506    0.0000 C   0  0
  2  4  1  0
  3  1  1  0
  4  1  2  0
  5  3  1  0
  6  2  2  0
  7  5  2  0
  8  7  1  0
  9  1  1  0
 10  6  1  0
 11  8  1  0
 12 11  1  0
 13  6  1  0
 14  4  1  0
 15 11  2  0
 16  9  2  0
 17 12  1  0
 18 15  1  0
 19  9  1  0
 20 13  2  0
 21 13  1  0
 22 19  1  0
 23 22  1  0
 24 23  1  0
 25 20  1  0
 26 21  2  0
 27 26  1  0
  2  5  1  0
  8 10  2  0
 25 27  2  0
 17 18  2  0
M  END
> <Library>
Bioactives

> <Batch>
2012

> <PLATE>
B1002L2012M01

> <WELL>
C16

> <EOS>
EOS100498

> <CCMF_source_vial_barcode>
LV2001695718

> <concentration_mM>
10

> <volume_ul>
30

$$$$
EOS100499
  SciTegic04282016392D

 41 46  0  0  0  0            999 V2000
   -1.9741   -0.6187    0.0000 C   0  0
   -2.6886   -1.0312    0.0000 C   0  0
   -2.6886   -1.8563    0.0000 C   0  0
   -1.9741   -2.2688    0.0000 C   0  0
   -1.2596   -1.8563    0.0000 C   0  0
   -1.2596   -1.0312    0.0000 C   0  0
   -0.5452   -0.6187    0.0000 N   0  0
    0.1693   -1.0312    0.0000 C   0  0
    0.8838   -0.6187    0.0000 C   0  0
    0.8838    0.2063    0.0000 C   0  0
    0.1693    0.6188    0.0000 C   0  0
   -0.5452    0.2063    0.0000 C   0  0
   -1.2596    0.6188    0.0000 C   0  0
   -3.4030   -2.2688    0.0000 F   0  0
    0.1693   -1.8562    0.0000 O   0  0
    1.5983   -1.0312    0.0000 C   0  0
    2.3127   -0.6188    0.0000 N   0  0
    1.5983   -1.8562    0.0000 O   0  0
    2.3127    0.2062    0.0000 C   0  0
    3.0272    0.6187    0.0000 C   0  0
    3.0272    1.4438    0.0000 C   0  0
    2.3128    1.8563    0.0000 C   0  0
    1.5983    1.4438    0.0000 C   0  0
    1.5983    0.6188    0.0000 C   0  0
    2.3128    2.6813    0.0000 O   0  0
    3.0273    3.0938    0.0000 C   0  0
    3.7417    2.6813    0.0000 C   0  0
    4.4562    3.0938    0.0000 C   0  0
    4.4562    3.9188    0.0000 C   0  0
    3.7418    4.3313    0.0000 C   0  0
    3.0273    3.9188    0.0000 C   0  0
    5.2408    2.8388    0.0000 C   0  0
    5.7257    3.5062    0.0000 N   0  0
    5.2409    4.1737    0.0000 N   0  0
    2.3128    4.3313    0.0000 C   0  0
    2.2266    5.1518    0.0000 C   0  0
    1.4196    5.3233    0.0000 N   0  0
    1.0071    4.6088    0.0000 N   0  0
    1.5591    3.9958    0.0000 C   0  0
    5.4959    4.9583    0.0000 C   0  0
    0.8838    1.8563    0.0000 F   0  0
  1  2  2  0
  1  6  1  0
  2  3  1  0
  3  4  2  0
  4  5  1  0
  5  6  2  0
  6  7  1  0
  7  8  1  0
  7 12  1  0
  8  9  1  0
  9 10  2  0
 10 11  1  0
 11 12  2  0
 12 13  1  0
  3 14  1  0
  8 15  2  0
  9 16  1  0
 16 17  1  0
 16 18  2  0
 17 19  1  0
 19 20  2  0
 19 24  1  0
 20 21  1  0
 21 22  2  0
 22 23  1  0
 23 24  2  0
 22 25  1  0
 25 26  1  0
 26 27  1  0
 26 31  2  0
 27 28  2  0
 29 30  2  0
 30 31  1  0
 28 32  1  0
 29 28  1  0
 29 34  1  0
 32 33  2  0
 33 34  1  0
 31 35  1  0
 35 36  1  0
 35 39  2  0
 36 37  2  0
 37 38  1  0
 38 39  1  0
 34 40  1  0
 23 41  1  0
M  END
> <Library>
Bioactives

> <Batch>
2012

> <PLATE>
B1002L2012M01

> <WELL>
E16

> <EOS>
EOS100499

> <CCMF_source_vial_barcode>
LV2001696394

> <concentration_mM>
10

> <volume_ul>
30

$$$$
EOS100500
  SciTegic04282016392D

 22 25  0  0  0  0            999 V2000
   -0.6476   -0.4976    0.0000 C   0  0
    0.1029   -0.0774    0.0000 C   0  0  2  0  0  0
    0.8129   -0.4976    0.0000 C   0  0  2  0  0  0
   -0.6476   -1.3323    0.0000 C   0  0
   -1.3576   -0.0774    0.0000 C   0  0
    1.5258   -0.1209    0.0000 C   0  0  1  0  0  0
    1.5258    0.7166    0.0000 C   0  0  2  0  0  0
   -2.0675   -0.4976    0.0000 C   0  0
   -1.3576   -1.7495    0.0000 C   0  0
   -2.0675   -1.3323    0.0000 C   0  0
    0.1029    0.7166    0.0000 C   0  0
    0.8129   -1.3323    0.0000 C   0  0
    0.8129    1.1338    0.0000 C   0  0
    0.1029   -1.7495    0.0000 C   0  0
   -2.7775   -1.7495    0.0000 O   0  0
    2.3169    0.9659    0.0000 C   0  0  2  0  0  0
    2.3169   -0.3701    0.0000 C   0  0
    1.2644    1.6922    0.0000 C   0  0
    2.7775    0.2964    0.0000 C   0  0
    2.5864    1.7495    0.0000 O   0  0
   -2.4421    0.1120    0.0000 O   0  0
   -2.0461    0.8434    0.0000 C   0  0
  2  1  1  0
  3  2  1  0
  1  4  2  0
  1  5  1  0
  3  6  1  0
  7 13  1  0
  5  8  2  0
  4  9  1  0
  9 10  2  0
  2 11  1  1
 12 14  1  0
 11 13  1  0
  4 14  1  0
 10 15  1  0
  7 16  1  0
  6 17  1  1
  7 18  1  1
 17 19  1  0
  3 12  1  6
 10  8  1  0
  6  7  1  0
 16 19  1  0
 16 20  1  1
  8 21  1  0
 21 22  1  0
M  END
> <Library>
Bioactives

> <Batch>
2012

> <PLATE>
B1002L2012M01

> <WELL>
G16

> <EOS>
EOS100500

> <CCMF_source_vial_barcode>
LV2001695170

> <concentration_mM>
10

> <volume_ul>
30

$$$$
EOS100501
  SciTegic04282016392D

 24 26  0  0  0  0            999 V2000
   -3.9296   -0.2062    0.0000 C   0  0
   -3.9296   -1.0313    0.0000 C   0  0
   -3.2151   -1.4437    0.0000 C   0  0
   -2.5006   -1.0313    0.0000 C   0  0
   -2.5006   -0.2062    0.0000 C   0  0
   -3.2151    0.2062    0.0000 C   0  0
   -4.6441    0.2062    0.0000 F   0  0
   -1.7862   -1.4437    0.0000 C   0  0
   -1.0717   -1.0313    0.0000 C   0  0
   -0.3572   -1.4437    0.0000 C   0  0
    0.3572   -1.0313    0.0000 C   0  0
    0.3572   -0.2062    0.0000 N   0  0
   -0.3572    0.2063    0.0000 C   0  0
   -1.0717   -0.2062    0.0000 C   0  0
    1.0717    0.2062    0.0000 C   0  0
    1.7862   -0.2062    0.0000 C   0  0
    1.7862   -1.0313    0.0000 O   0  0
    2.5006    0.2062    0.0000 C   0  0
    3.2151   -0.2062    0.0000 C   0  0
    3.9296    0.2062    0.0000 C   0  0
    3.9296    1.0313    0.0000 C   0  0
    3.2151    1.4437    0.0000 C   0  0
    2.5006    1.0313    0.0000 C   0  0
    4.6441    1.4437    0.0000 Cl  0  0
  1  2  2  0
  2  3  1  0
  3  4  2  0
  4  5  1  0
  5  6  2  0
  6  1  1  0
  1  7  1  0
  4  8  1  0
  8  9  1  0
  9 10  1  0
 10 11  1  0
 11 12  1  0
 12 13  1  0
 13 14  1  0
 14  9  1  0
 12 15  1  0
 15 16  1  0
 16 17  1  0
 16 18  1  0
 18 19  2  0
 19 20  1  0
 20 21  2  0
 21 22  1  0
 22 23  2  0
 23 18  1  0
 21 24  1  0
M  END
> <Library>
Bioactives

> <Batch>
2012

> <PLATE>
B1002L2012M01

> <WELL>
I16

> <EOS>
EOS100501

> <CCMF_source_vial_barcode>
LV2001696361

> <concentration_mM>
10

> <volume_ul>
30

$$$$
EOS100502
  SciTegic04282016392D

 25 28  0  0  0  0            999 V2000
    1.0967    1.5215    0.0000 Cl  0  0
    0.2717    1.5215    0.0000 C   0  0
   -0.1408    0.8070    0.0000 C   0  0
   -0.9658    0.8070    0.0000 C   0  0
   -1.3783    1.5215    0.0000 C   0  0
   -0.9658    2.2359    0.0000 C   0  0
   -0.1408    2.2359    0.0000 C   0  0
    0.2717    0.0925    0.0000 C   0  0
    1.0967    0.0925    0.0000 N   0  0
    1.6111   -0.5525    0.0000 C   0  0
    1.4275   -1.3568    0.0000 C   0  0
    0.6842   -1.7148    0.0000 N   0  0
   -0.0591   -1.3568    0.0000 C   0  0
   -0.2426   -0.5525    0.0000 C   0  0
   -1.0310   -0.3093    0.0000 C   0  0
   -1.6358   -0.8705    0.0000 C   0  0
   -1.4522   -1.6748    0.0000 C   0  0
   -0.6638   -1.9180    0.0000 C   0  0
   -2.0569   -2.2359    0.0000 O   0  0
   -2.8453   -1.9928    0.0000 C   0  0
   -2.4241   -0.6273    0.0000 F   0  0
    2.1358   -1.7800    0.0000 N   0  0
    2.7570   -1.2372    0.0000 N   0  0
    2.4328   -0.4785    0.0000 C   0  0
    2.8453    0.2359    0.0000 C   0  0
  1  2  1  0
  2  3  2  0
  3  4  1  0
  4  5  2  0
  5  6  1  0
  6  7  2  0
  2  7  1  0
  3  8  1  0
  8  9  2  0
  9 10  1  0
 10 11  1  0
 11 12  2  0
 12 13  1  0
 13 14  2  0
  8 14  1  0
 14 15  1  0
 15 16  2  0
 16 17  1  0
 17 18  2  0
 13 18  1  0
 17 19  1  0
 19 20  1  0
 16 21  1  0
 11 22  1  0
 22 23  1  0
 23 24  1  0
 10 24  2  0
 24 25  1  0
M  END
> <Library>
Bioactives

> <Batch>
2012

> <PLATE>
B1002L2012M01

> <WELL>
K16

> <EOS>
EOS100502

> <CCMF_source_vial_barcode>
LV2001695237

> <concentration_mM>
10

> <volume_ul>
30

$$$$
EOS100503
  SciTegic04282016392D

 42 44  0  0  0  0            999 V2000
   -4.5747    0.0552    0.0000 C   0  0
   -4.5954   -1.0032    0.0000 C   0  0
   -4.1811   -1.6139    0.0000 C   0  0
   -3.4145   -1.6139    0.0000 N   0  0
   -3.0830   -0.9626    0.0000 C   0  0
   -3.0830    0.0004    0.0000 C   0  0
   -3.8151    0.3809    0.0000 N   0  0
   -3.8151    1.1951    0.0000 C   0  0
   -5.2923    0.4623    0.0000 O   0  0
   -5.3131   -0.5961    0.0000 F   0  0
   -5.3413   -1.3385    0.0000 F   0  0
   -2.3655   -1.2210    0.0000 N   0  0
   -1.6477   -0.8139    0.0000 C   0  0
   -1.6477    0.0004    0.0000 N   0  0
   -2.3655    0.4075    0.0000 C   0  0
   -0.9300   -1.2210    0.0000 N   0  0
    0.3723   -0.8139    0.0000 C   0  0
    1.0901   -1.2210    0.0000 C   0  0
    1.8078   -0.8139    0.0000 C   0  0
    1.8078    0.0004    0.0000 C   0  0
    1.0901    0.4075    0.0000 C   0  0
    0.3723    0.0004    0.0000 C   0  0
   -0.2135    0.5762    0.0000 O   0  0
   -0.2135    1.3904    0.0000 C   0  0
    2.5254   -1.2210    0.0000 F   0  0
    2.5254    0.4075    0.0000 C   0  0
    3.2431    0.0004    0.0000 O   0  0
    2.5254    1.2217    0.0000 N   0  0
    3.2431    1.6288    0.0000 C   0  0
    3.9607    1.2217    0.0000 C   0  0
    4.6784    1.6288    0.0000 C   0  0
    4.6784    2.4430    0.0000 N   0  0
    3.9607    2.8501    0.0000 C   0  0
    3.2431    2.4430    0.0000 C   0  0
    5.3413    2.7504    0.0000 C   0  0
   -2.6969   -2.0210    0.0000 C   0  0
   -2.4824   -2.8075    0.0000 C   0  0
   -1.6547   -2.8501    0.0000 C   0  0
   -1.3578   -2.0900    0.0000 C   0  0
   -2.0018   -1.5776    0.0000 C   0  0
    4.4158   -2.6409    0.0000 Cl  0  0
    4.3788   -1.4551    0.0000 Cl  0  0
  1  2  1  0
  2  3  1  0
  3  4  1  0
  4  5  1  0
  6  7  1  0
  7  1  1  0
  7  8  1  0
  1  9  2  0
  2 10  1  0
  2 11  1  0
 12 13  2  0
 13 14  1  0
 14 15  2  0
 15  6  1  0
 13 16  1  0
 16 17  1  0
 17 18  2  0
 18 19  1  0
 19 20  2  0
 20 21  1  0
 21 22  2  0
 22 17  1  0
 22 23  1  0
 23 24  1  0
 19 25  1  0
 20 26  1  0
 26 27  2  0
 26 28  1  0
 28 29  1  0
 29 30  1  0
 30 31  1  0
 31 32  1  0
 32 33  1  0
 33 34  1  0
 34 29  1  0
 32 35  1  0
  4 36  1  0
 36 37  1  0
 37 38  1  0
 38 39  1  0
 39 40  1  0
 40 36  1  0
  6  5  2  0
  5 12  1  0
M  END
> <Library>
Bioactives

> <Batch>
2012

> <PLATE>
B1002L2012M01

> <WELL>
M16

> <EOS>
EOS100503

> <CCMF_source_vial_barcode>
LV2001695156

> <concentration_mM>
10

> <volume_ul>
30

$$$$
EOS100504
  SciTegic04282016392D

 22 22  0  0  0  0            999 V2000
   12.5340  -18.3786    0.0000 C   0  0
   12.5340  -19.2037    0.0000 C   0  0
   13.2484  -19.6162    0.0000 C   0  0
   13.9630  -19.2037    0.0000 C   0  0
   13.9630  -18.3786    0.0000 C   0  0
   13.2484  -17.9661    0.0000 C   0  0
   14.6774  -17.9661    0.0000 C   0  0
   15.3919  -18.3786    0.0000 N   0  0
   16.1063  -17.9661    0.0000 C   0  0
   16.8209  -18.3786    0.0000 C   0  0
   17.5354  -17.9661    0.0000 C   0  0
   18.2498  -18.3786    0.0000 C   0  0
   18.9644  -17.9661    0.0000 C   0  0
   19.6788  -18.3786    0.0000 C   0  0
   20.3933  -17.9661    0.0000 C   0  0
   21.1078  -18.3786    0.0000 N   0  0
   21.8223  -17.9661    0.0000 O   0  0
   11.8195  -19.6162    0.0000 N   0  0
   11.1049  -19.2037    0.0000 C   0  0
   11.8195  -20.4411    0.0000 C   0  0
   14.6774  -17.1411    0.0000 O   0  0
   20.3933  -17.1411    0.0000 O   0  0
  1  2  2  0
  2  3  1  0
  3  4  2  0
  4  5  1  0
  5  6  2  0
  6  1  1  0
  7  5  1  0
  8  7  1  0
  9  8  1  0
 10  9  1  0
 11 10  1  0
 12 11  1  0
 13 12  1  0
 14 13  1  0
 15 14  1  0
 16 15  1  0
 17 16  1  0
 18  2  1  0
 19 18  1  0
 18 20  1  0
  7 21  2  0
 15 22  2  0
M  END
> <Library>
Bioactives

> <Batch>
2012

> <PLATE>
B1002L2012M01

> <WELL>
O16

> <EOS>
EOS100504

> <CCMF_source_vial_barcode>
LV2001695774

> <concentration_mM>
10

> <volume_ul>
30

$$$$
EOS100505
  SciTegic04282016392D

 26 28  0  0  0  0            999 V2000
    0.0000    6.1733    0.0000 C   0  0
    0.0000    5.3483    0.0000 C   0  0
    0.7145    4.9358    0.0000 C   0  0
    1.4290    5.3483    0.0000 C   0  0
    1.4290    6.1733    0.0000 C   0  0
    0.7145    6.5858    0.0000 N   0  0
    2.1435    4.9358    0.0000 C   0  0
    2.8579    5.3483    0.0000 C   0  0
    2.8579    6.1733    0.0000 C   0  0
    2.1435    6.5858    0.0000 C   0  0
    2.1435    7.4108    0.0000 O   0  0
    3.5724    4.9358    0.0000 C   0  0
    3.5724    4.1108    0.0000 C   0  0
    4.2869    3.6983    0.0000 C   0  0
    5.0014    4.1108    0.0000 C   0  0
    5.0014    4.9358    0.0000 C   0  0
    4.2869    5.3483    0.0000 C   0  0
    5.7134    3.6997    0.0000 C   0  0
    6.4254    4.1108    0.0000 O   0  0
    5.7134    2.8775    0.0000 N   0  0
    6.4254    2.4665    0.0000 C   0  0
    6.4254    1.6443    0.0000 C   0  0
    7.1374    1.2332    0.0000 C   0  0
    7.1374    0.4111    0.0000 N   0  0
    7.8495    0.0000    0.0000 C   0  0
    6.4254    0.0000    0.0000 C   0  0
  1  2  2  0
  2  3  1  0
  3  4  2  0
  4  5  1  0
  5  6  2  0
  6  1  1  0
  4  7  1  0
  7  8  2  0
  8  9  1  0
  9 10  2  0
 10  5  1  0
 10 11  1  0
  8 12  1  0
 12 13  2  0
 13 14  1  0
 14 15  2  0
 15 16  1  0
 16 17  2  0
 17 12  1  0
 15 18  1  0
 18 19  2  0
 18 20  1  0
 20 21  1  0
 21 22  1  0
 22 23  1  0
 23 24  1  0
 24 25  1  0
 24 26  1  0
M  END
> <Library>
Bioactives

> <Batch>
2012

> <PLATE>
B1002L2012M01

> <WELL>
A18

> <EOS>
EOS100505

> <CCMF_source_vial_barcode>
LV2001696353

> <concentration_mM>
10

> <volume_ul>
30

$$$$
EOS100506
  SciTegic04282016392D

 33 36  0  0  0  0            999 V2000
   -2.7735   -0.1422    0.0000 C   0  0
   -2.7735   -0.9672    0.0000 C   0  0
   -2.0590   -1.3797    0.0000 N   0  0
   -1.3445   -0.9672    0.0000 C   0  0
   -1.3445   -0.1422    0.0000 C   0  0
   -2.0590    0.2703    0.0000 C   0  0
   -2.4715    0.9848    0.0000 C   0  0
   -3.2965    0.9848    0.0000 N   0  0
   -1.6465    0.9848    0.0000 C   0  0
   -2.0590    1.6992    0.0000 O   0  0
   -0.8215    0.9848    0.0000 N   0  0
   -0.4090    1.6992    0.0000 C   0  0
    0.4160    1.7073    0.0000 C   0  0
    0.8215    2.4258    0.0000 C   0  0
    0.4161    3.1441    0.0000 C   0  0
   -0.3949    3.1440    0.0000 C   0  0
   -0.8144    2.4176    0.0000 C   0  0
    1.6465    2.4258    0.0000 O   0  0
    2.0590    3.1402    0.0000 C   0  0
    1.6465    3.8547    0.0000 O   0  0
    2.8840    3.1402    0.0000 N   0  0
    3.2965    3.8547    0.0000 C   0  0
    3.2965    2.4258    0.0000 C   0  0
   -2.0590   -2.2047    0.0000 C   0  0
   -2.7735   -2.6172    0.0000 N   0  0
   -2.7735   -3.4422    0.0000 C   0  0
   -2.0590   -3.8547    0.0000 N   0  0
   -1.3445   -3.4422    0.0000 C   0  0
   -1.3445   -2.6172    0.0000 C   0  0
   -0.5599   -3.6971    0.0000 N   0  0
   -0.0750   -3.0297    0.0000 C   0  0
   -0.5599   -2.3623    0.0000 C   0  0
   -0.3050   -1.5776    0.0000 C   0  0
  1  2  1  0
  2  3  1  0
  3  4  1  0
  4  5  1  0
  5  6  1  0
  6  1  1  0
  6  7  1  0
  7  8  1  0
  6  9  1  0
  9 10  2  0
  9 11  1  0
 11 12  1  0
 12 13  2  0
 13 14  1  0
 14 15  2  0
 15 16  1  0
 16 17  2  0
 17 12  1  0
 14 18  1  0
 18 19  1  0
 19 20  2  0
 19 21  1  0
 21 22  1  0
 21 23  1  0
  3 24  1  0
 24 25  1  0
 25 26  2  0
 26 27  1  0
 27 28  2  0
 28 29  1  0
 29 24  2  0
 28 30  1  0
 30 31  1  0
 31 32  2  0
 32 29  1  0
 32 33  1  0
M  END
> <Library>
Bioactives

> <Batch>
2012

> <PLATE>
B1002L2012M01

> <WELL>
C18

> <EOS>
EOS100506

> <CCMF_source_vial_barcode>
LV2001696337

> <concentration_mM>
10

> <volume_ul>
30

$$$$
EOS100507
  SciTegic04282016392D

 29 31  0  0  0  0            999 V2000
    0.7144    2.4750    0.0000 C   0  0
    1.4290    2.8875    0.0000 C   0  0
    2.1434    2.4750    0.0000 C   0  0
    2.1434    1.6500    0.0000 C   0  0
    1.4290    1.2375    0.0000 N   0  0
    0.7144    1.6500    0.0000 C   0  0
    0.0000    2.8875    0.0000 C   0  0
    2.8579    2.8875    0.0000 C   0  0
    2.8579    1.2375    0.0000 C   0  0
    3.5724    1.6500    0.0000 C   0  0
    4.2868    1.2375    0.0000 C   0  0
    4.2868    0.4125    0.0000 N   0  0
    3.5724    0.0000    0.0000 C   0  0
    2.8579    0.4125    0.0000 C   0  0
    5.0013    1.6500    0.0000 N   0  0
    2.1434    0.0000    0.0000 Cl  0  0
    5.0013    2.4750    0.0000 C   0  0
    5.7158    2.8875    0.0000 C   0  0
    6.4302    2.4750    0.0000 N   0  0
    6.4302    1.6500    0.0000 C   0  0
    5.7158    1.2375    0.0000 C   0  0
    7.1447    2.8875    0.0000 C   0  0
    7.1447    3.7125    0.0000 O   0  0
    7.8592    2.4750    0.0000 C   0  0
    8.5737    2.8875    0.0000 C   0  0
    9.2881    2.4750    0.0000 S   0  0
    9.8715    3.0584    0.0000 C   0  0
    8.8149    1.7992    0.0000 O   0  0
    9.9202    1.9447    0.0000 O   0  0
  1  2  2  0
  2  3  1  0
  3  4  2  0
  4  5  1  0
  5  6  2  0
  6  1  1  0
  1  7  1  0
  3  8  1  0
  4  9  1  0
  9 10  2  0
 10 11  1  0
 11 12  2  0
 12 13  1  0
 13 14  2  0
 14  9  1  0
 11 15  1  0
 14 16  1  0
 15 17  1  0
 17 18  1  0
 18 19  1  0
 19 20  1  0
 20 21  1  0
 21 15  1  0
 19 22  1  0
 22 23  2  0
 22 24  1  0
 24 25  1  0
 25 26  1  0
 26 27  1  0
 26 28  2  0
 26 29  2  0
M  END
> <Library>
Bioactives

> <Batch>
2012

> <PLATE>
B1002L2012M01

> <WELL>
E18

> <EOS>
EOS100507

> <CCMF_source_vial_barcode>
LV2001695160

> <concentration_mM>
10

> <volume_ul>
30

$$$$
EOS100508
  SciTegic04282016392D

 30 29  0  0  0  0            999 V2000
   -1.0717   -0.6187    0.0000 C   0  0
   -1.0717   -1.4437    0.0000 O   0  0
   -1.7862    0.6187    0.0000 N   0  0
   -1.7862   -0.2062    0.0000 C   0  0  1  0  0  0
   -2.5006   -0.6187    0.0000 C   0  0
   -3.2151   -0.2062    0.0000 C   0  0
   -3.9296   -0.6187    0.0000 C   0  0
   -4.6441   -0.2062    0.0000 N   0  0
   -5.3585   -0.6187    0.0000 C   0  0
   -5.3585   -1.4437    0.0000 N   0  0
   -6.0730   -0.2062    0.0000 N   0  0
    1.0717   -0.2062    0.0000 C   0  0
    1.0717    0.6187    0.0000 O   0  0
   -0.3572   -0.2062    0.0000 N   0  0
    0.3572   -0.6187    0.0000 C   0  0
    3.2151   -0.6187    0.0000 C   0  0
    3.2151   -1.4437    0.0000 O   0  0
    1.7862   -0.6187    0.0000 N   0  0
    2.5006   -0.2062    0.0000 C   0  0  1  0  0  0
    2.5006    0.6187    0.0000 C   0  0
    3.2151    1.0313    0.0000 C   0  0
    3.2151    1.8563    0.0000 O   0  0
    3.9296    0.6187    0.0000 O   0  0
    5.3585   -0.2062    0.0000 C   0  0
    5.3585    0.6187    0.0000 O   0  0
    3.9296   -0.2062    0.0000 N   0  0
    4.6441   -0.6187    0.0000 C   0  0  1  0  0  0
    4.6441   -1.4437    0.0000 C   0  0
    5.3585   -1.8563    0.0000 S   0  0
    6.0730   -0.6187    0.0000 O   0  0
  1  2  2  0
  4  3  1  6
  4  1  1  0
  4  5  1  0
  5  6  1  0
  6  7  1  0
  7  8  1  0
  8  9  1  0
  9 10  2  0
  9 11  1  0
 12 13  2  0
 14 15  1  0
 12 15  1  0
  1 14  1  0
 16 17  2  0
 19 18  1  1
 19 16  1  0
 19 20  1  0
 20 21  1  0
 21 22  2  0
 21 23  1  0
 12 18  1  0
 24 25  2  0
 27 26  1  6
 27 24  1  0
 27 28  1  0
 28 29  1  0
 16 26  1  0
 24 30  1  0
M  END
> <Library>
Bioactives

> <Batch>
2012

> <PLATE>
B1002L2012M01

> <WELL>
G18

> <EOS>
EOS100508

> <CCMF_source_vial_barcode>
LV2001695157

> <concentration_mM>
10

> <volume_ul>
30

$$$$
EOS100509
  SciTegic04282016392D

 43 47  0  0  0  0            999 V2000
    5.1392   -1.0889    0.0000 O   0  0
    4.8037   -0.3352    0.0000 C   0  0
    5.2886    0.3322    0.0000 O   0  0
    3.9832   -0.2490    0.0000 C   0  0
    3.4983   -0.9164    0.0000 C   0  0
    2.6778   -0.8302    0.0000 C   0  0
    2.3422   -0.0765    0.0000 C   0  0
    1.5217    0.0097    0.0000 C   0  0
    1.1092    0.7242    0.0000 N   0  0
    0.3023    0.5527    0.0000 N   0  0
   -0.3108    1.1047    0.0000 C   0  0
   -1.0954    0.8498    0.0000 C   0  0
   -1.7085    1.4018    0.0000 C   0  0
   -1.5370    2.2088    0.0000 C   0  0
   -2.1501    2.7608    0.0000 C   0  0
   -2.9347    2.5059    0.0000 N   0  0
   -3.1063    1.6989    0.0000 C   0  0
   -3.8909    1.4440    0.0000 C   0  0
   -4.5040    1.9960    0.0000 N   0  0
   -5.2886    1.7411    0.0000 C   0  0
   -4.3324    2.8030    0.0000 C   0  0
   -3.5478    3.0579    0.0000 C   0  0
   -1.9786    3.5678    0.0000 O   0  0
   -0.7524    2.4637    0.0000 C   0  0
   -0.1393    1.9117    0.0000 C   0  0
    0.2160   -0.2678    0.0000 C   0  0
   -0.4984   -0.6803    0.0000 C   0  0
   -0.4984   -1.5053    0.0000 C   0  0
   -1.2129   -1.9178    0.0000 C   0  0
   -1.2129   -2.7428    0.0000 C   0  0
   -0.4984   -3.1553    0.0000 C   0  0
   -1.2129   -3.5678    0.0000 C   0  0
   -1.9274   -3.1553    0.0000 C   0  0
   -1.9274   -1.5053    0.0000 C   0  0
   -1.9274   -0.6803    0.0000 C   0  0
   -2.6418   -0.2678    0.0000 C   0  0
   -3.3563    0.1447    0.0000 C   0  0
   -2.6418    0.5572    0.0000 C   0  0
   -3.3563   -0.6803    0.0000 C   0  0
   -1.2129   -0.2678    0.0000 C   0  0
    0.9697   -0.6033    0.0000 C   0  0
    2.8271    0.5909    0.0000 C   0  0
    3.6476    0.5047    0.0000 C   0  0
  1  2  2  0
  2  3  1  0
  2  4  1  0
  4  5  2  0
  5  6  1  0
  6  7  2  0
  7  8  1  0
  8  9  2  0
  9 10  1  0
 10 11  1  0
 11 12  2  0
 12 13  1  0
 13 14  2  0
 14 15  1  0
 15 16  1  0
 16 17  1  0
 17 18  1  0
 18 19  1  0
 19 20  1  0
 19 21  1  0
 21 22  1  0
 16 22  1  0
 15 23  2  0
 14 24  1  0
 24 25  2  0
 11 25  1  0
 10 26  1  0
 26 27  1  0
 27 28  2  0
 28 29  1  0
 29 30  1  0
 30 31  1  0
 30 32  1  0
 30 33  1  0
 29 34  2  0
 34 35  1  0
 35 36  1  0
 36 37  1  0
 36 38  1  0
 36 39  1  0
 35 40  2  0
 27 40  1  0
 26 41  2  0
  8 41  1  0
  7 42  1  0
 42 43  2  0
  4 43  1  0
M  END
> <Library>
Bioactives

> <Batch>
2012

> <PLATE>
B1002L2012M01

> <WELL>
I18

> <EOS>
EOS100509

> <CCMF_source_vial_barcode>
LV2001695226

> <concentration_mM>
10

> <volume_ul>
30

$$$$
EOS100510
  SciTegic04282016392D

 32 35  0  0  0  0            999 V2000
    3.5724    4.1251    0.0000 C   0  0
    2.8579    3.7126    0.0000 C   0  0
    2.8579    2.8876    0.0000 C   0  0
    3.5724    2.4751    0.0000 C   0  0
    4.2869    2.8876    0.0000 C   0  0
    5.0014    2.4751    0.0000 C   0  0
    5.7159    2.8876    0.0000 C   0  0
    6.4304    2.4751    0.0000 C   0  0
    7.1448    2.8876    0.0000 C   0  0
    7.1448    3.7126    0.0000 C   0  0
    6.4304    4.1251    0.0000 C   0  0
    5.7159    3.7126    0.0000 C   0  0
    5.0014    4.1251    0.0000 C   0  0
    4.2869    3.7126    0.0000 C   0  0
    2.1435    4.1251    0.0000 S   0  0
    2.5560    4.8396    0.0000 O   0  0
    1.7309    3.4106    0.0000 O   0  0
    1.4290    4.5376    0.0000 O   0  0
    3.5724    1.6500    0.0000 N   0  0
    2.8579    1.2375    0.0000 C   0  0
    2.1435    1.6500    0.0000 C   0  0
    1.4290    1.2375    0.0000 C   0  0
    1.4290    0.4125    0.0000 C   0  0
    2.1435    0.0000    0.0000 C   0  0
    2.8579    0.4125    0.0000 C   0  0
    0.7145    1.6500    0.0000 S   0  0
    1.1270    2.3645    0.0000 O   0  0
    0.3020    0.9356    0.0000 O   0  0
    0.0000    2.0625    0.0000 N   0  0
    5.0014    1.6500    0.0000 O   0  0
    5.0014    4.9501    0.0000 O   0  0
    3.5724    4.9501    0.0000 N   0  0
  1  2  2  0
  2  3  1  0
  3  4  2  0
  4  5  1  0
  5  6  1  0
  6  7  1  0
  7  8  2  0
  8  9  1  0
  9 10  2  0
 10 11  1  0
 11 12  2  0
  7 12  1  0
 12 13  1  0
 13 14  1  0
  5 14  2  0
  1 14  1  0
 15 16  2  0
 15 17  2  0
 15 18  1  0
  2 15  1  0
 20 21  2  0
 21 22  1  0
 22 23  2  0
 23 24  1  0
 24 25  2  0
 20 25  1  0
 26 27  2  0
 26 28  2  0
 26 29  1  0
 22 26  1  0
 19 20  1  0
  4 19  1  0
  6 30  2  0
 13 31  2  0
  1 32  1  0
M  END
> <Library>
Bioactives

> <Batch>
2012

> <PLATE>
B1002L2012M01

> <WELL>
K18

> <EOS>
EOS100510

> <CCMF_source_vial_barcode>
LV2001696343

> <concentration_mM>
10

> <volume_ul>
30

$$$$
EOS100511
  SciTegic04282016392D

 25 26  0  0  1  0            999 V2000
    2.6664   -3.1895    0.0000 O   0  0
    1.8414   -3.1895    0.0000 C   0  0
    1.4289   -3.9039    0.0000 C   0  0
    1.8414   -4.6184    0.0000 C   0  0
    1.4289   -5.3329    0.0000 C   0  0
    0.6039   -5.3329    0.0000 C   0  0
    0.1914   -4.6184    0.0000 C   0  0
    0.6039   -3.9039    0.0000 C   0  0
    1.4289   -2.4750    0.0000 N   0  0
    1.8414   -1.7605    0.0000 C   0  0  2  0  0  0
    2.6664   -1.7605    0.0000 C   0  0
    3.0789   -2.4750    0.0000 O   0  0
    3.9039   -2.4750    0.0000 C   0  0
    4.3164   -3.1895    0.0000 C   0  0
    3.0789   -1.0461    0.0000 O   0  0
    1.4289   -1.0461    0.0000 C   0  0
    1.8414   -0.3316    0.0000 C   0  0
    1.4289    0.3829    0.0000 C   0  0
    1.8414    1.0974    0.0000 C   0  0
    2.6664    1.0974    0.0000 C   0  0
    3.0789    1.8118    0.0000 N   0  3
    2.6664    2.5263    0.0000 O   0  5
    3.9039    1.8118    0.0000 O   0  0
    3.0789    0.3829    0.0000 C   0  0
    2.6664   -0.3316    0.0000 C   0  0
  1  2  2  0
  2  3  1  0
  3  4  2  0
  4  5  1  0
  5  6  2  0
  6  7  1  0
  7  8  2  0
  3  8  1  0
  2  9  1  0
 10  9  1  1
 10 11  1  0
 11 12  1  0
 12 13  1  0
 13 14  1  0
 11 15  2  0
 10 16  1  0
 16 17  1  0
 17 18  2  0
 18 19  1  0
 19 20  2  0
 20 21  1  0
 21 22  1  0
 21 23  2  0
 20 24  1  0
 24 25  2  0
 17 25  1  0
M  CHG  2  21   1  22  -1
M  END
> <Library>
Bioactives

> <Batch>
2012

> <PLATE>
B1002L2012M01

> <WELL>
M18

> <EOS>
EOS100511

> <CCMF_source_vial_barcode>
LV2001695706

> <concentration_mM>
10

> <volume_ul>
30

$$$$
EOS100512
  SciTegic04282016392D

 28 32  0  0  1  0            999 V2000
    0.6411   -1.1104    0.0000 C   0  0
   -0.1435   -1.3654    0.0000 C   0  0
   -0.3984   -2.1500    0.0000 C   0  0
    0.1536   -2.7631    0.0000 C   0  0
   -0.1014   -3.5477    0.0000 C   0  0
   -0.9083   -3.7192    0.0000 C   0  0
   -1.4604   -3.1062    0.0000 C   0  0
   -1.2054   -2.3215    0.0000 C   0  0
   -0.6284   -0.6979    0.0000 C   0  0
   -1.4534   -0.6979    0.0000 C   0  0
   -1.8659   -1.4124    0.0000 C   0  0
   -2.6909   -1.4124    0.0000 C   0  0
   -3.1034   -0.6979    0.0000 C   0  0
   -2.6909    0.0165    0.0000 C   0  0
   -1.8659    0.0165    0.0000 C   0  0
   -0.1435   -0.0305    0.0000 O   0  0
    0.6411   -0.2854    0.0000 C   0  0
    1.3556    0.1271    0.0000 N   0  0
    2.0701   -0.2854    0.0000 C   0  0
    2.0701   -1.1104    0.0000 N   0  0
    1.3556   -1.5229    0.0000 C   0  0
    1.3556   -2.3479    0.0000 N   0  0
    2.0701   -2.7604    0.0000 C   0  0
    2.0701   -3.5854    0.0000 C   0  0  1  0  0  0
    2.7375   -4.0704    0.0000 O   0  0
    2.4826   -4.8550    0.0000 C   0  0
    1.6576   -4.8550    0.0000 C   0  0
    1.4026   -4.0704    0.0000 C   0  0
  1  2  1  0
  2  3  1  0
  3  4  2  0
  4  5  1  0
  5  6  2  0
  6  7  1  0
  7  8  2  0
  3  8  1  0
  2  9  2  0
  9 10  1  0
 10 11  2  0
 11 12  1  0
 12 13  2  0
 13 14  1  0
 14 15  2  0
 10 15  1  0
  9 16  1  0
  1 17  1  0
 16 17  1  0
 17 18  2  0
 18 19  1  0
 19 20  2  0
 20 21  1  0
  1 21  2  0
 21 22  1  0
 22 23  1  0
 24 23  1  1
 24 25  1  0
 25 26  1  0
 26 27  1  0
 27 28  1  0
 24 28  1  0
M  END
> <Library>
Bioactives

> <Batch>
2012

> <PLATE>
B1002L2012M01

> <WELL>
O18

> <EOS>
EOS100512

> <CCMF_source_vial_barcode>
LV2001695704

> <concentration_mM>
10

> <volume_ul>
30

$$$$
EOS100513
  SciTegic04282016392D

 27 29  0  0  0  0            999 V2000
    0.0000    0.0000    0.0000 F   0  0
    0.7145   -0.4125    0.0000 C   0  0
    1.4289    0.0000    0.0000 F   0  0
    0.7145   -1.2375    0.0000 C   0  0
    1.3819   -1.7224    0.0000 N   0  0
    1.1270   -2.5070    0.0000 N   0  0
    1.6119   -3.1745    0.0000 C   0  0
    2.4324   -3.0882    0.0000 C   0  0
    2.7679   -2.3346    0.0000 Cl  0  0
    2.9173   -3.7557    0.0000 C   0  0
    2.5817   -4.5094    0.0000 C   0  0
    1.7613   -4.5956    0.0000 C   0  0
    1.2763   -3.9282    0.0000 C   0  0
    0.4559   -4.0144    0.0000 Cl  0  0
    0.3020   -2.5070    0.0000 C   0  0
   -0.1830   -3.1745    0.0000 C   0  0
   -1.0080   -3.1745    0.0000 C   0  0
   -1.2629   -3.9591    0.0000 N   0  0
   -0.5955   -4.4440    0.0000 C   0  0
   -0.5955   -5.2690    0.0000 N   0  0
   -1.3099   -5.6815    0.0000 C   0  0
   -1.3099   -6.5065    0.0000 C   0  0
   -2.0244   -6.9190    0.0000 C   0  0
   -0.5955   -6.9190    0.0000 C   0  0
   -2.0244   -5.2690    0.0000 O   0  0
    0.0720   -3.9591    0.0000 S   0  0
    0.0470   -1.7224    0.0000 C   0  0
  1  2  1  0
  2  3  1  0
  2  4  1  0
  4  5  2  0
  5  6  1  0
  6  7  1  0
  7  8  2  0
  8  9  1  0
  8 10  1  0
 10 11  2  0
 11 12  1  0
 12 13  2  0
  7 13  1  0
 13 14  1  0
  6 15  1  0
 15 16  1  0
 16 17  2  0
 17 18  1  0
 18 19  2  0
 19 20  1  0
 20 21  1  0
 21 22  1  0
 22 23  1  0
 22 24  1  0
 21 25  2  0
 19 26  1  0
 16 26  1  0
 15 27  2  0
  4 27  1  0
M  END
> <Library>
Bioactives

> <Batch>
2012

> <PLATE>
B1002L2012M01

> <WELL>
A20

> <EOS>
EOS100513

> <CCMF_source_vial_barcode>
LV2001696326

> <concentration_mM>
10

> <volume_ul>
30

$$$$
EOS100514
  SciTegic04282016392D

 29 33  0  0  0  0            999 V2000
    4.2767    6.3862    0.0000 C   0  0
    3.7247    5.7731    0.0000 C   0  0
    2.9177    5.9446    0.0000 C   0  0
    3.9796    4.9885    0.0000 O   0  0
    3.4276    4.3754    0.0000 C   0  0
    3.6825    3.5908    0.0000 C   0  0
    3.1305    2.9777    0.0000 C   0  0
    2.6206    4.5469    0.0000 C   0  0
    2.0686    3.9338    0.0000 C   0  0
    2.3235    3.1492    0.0000 C   0  0
    1.7715    2.5361    0.0000 C   0  0
    2.0264    1.7515    0.0000 C   0  0
    1.4744    1.1384    0.0000 N   0  0
    0.9645    2.7076    0.0000 C   0  0
    0.4125    2.0945    0.0000 N   0  0
    0.6674    1.3099    0.0000 C   0  0
    0.0000    0.8250    0.0000 C   0  0
    0.0000    0.0000    0.0000 C   0  0
   -0.7145   -0.4125    0.0000 C   0  0
   -0.7145   -1.2375    0.0000 C   0  0
    0.0000   -1.6500    0.0000 N   0  0
    0.7145   -1.2375    0.0000 C   0  0
    0.7145   -0.4125    0.0000 C   0  0
    1.4289    0.0000    0.0000 C   0  0
    2.1434   -0.4125    0.0000 C   0  0
    2.1434   -1.2375    0.0000 C   0  0
    1.4289   -1.6500    0.0000 C   0  0
   -0.6674    1.3099    0.0000 C   0  0
   -0.4125    2.0945    0.0000 N   0  0
  1  2  1  0
  2  3  1  0
  2  4  1  0
  4  5  1  0
  5  6  2  0
  6  7  1  0
  5  8  1  0
  8  9  2  0
  9 10  1  0
  7 10  2  0
 10 11  1  0
 11 12  1  0
 12 13  2  0
 11 14  2  0
 14 15  1  0
 15 16  1  0
 13 16  1  0
 16 17  2  0
 17 18  1  0
 18 19  1  0
 19 20  2  0
 20 21  1  0
 21 22  2  0
 22 23  1  0
 18 23  2  0
 23 24  1  0
 24 25  2  0
 25 26  1  0
 26 27  2  0
 22 27  1  0
 17 28  1  0
 28 29  2  0
 15 29  1  0
M  END
> <Library>
Bioactives

> <Batch>
2012

> <PLATE>
B1002L2012M01

> <WELL>
C20

> <EOS>
EOS100514

> <CCMF_source_vial_barcode>
LV2001699912

> <concentration_mM>
10

> <volume_ul>
30

$$$$
EOS100515
  SciTegic04282016392D

 22 25  0  0  0  0            999 V2000
   13.7949  -21.3431    0.0000 N   0  0
   14.5094  -21.7556    0.0000 C   0  0
   14.5094  -22.5806    0.0000 C   0  0
   13.7949  -22.9931    0.0000 C   0  0
   13.0804  -22.5806    0.0000 C   0  0
   12.3660  -22.9931    0.0000 N   0  0
   11.6515  -22.5806    0.0000 C   0  0
   11.6515  -21.7556    0.0000 C   0  0
   12.3660  -21.3431    0.0000 C   0  0
   13.0804  -21.7556    0.0000 C   0  0
   16.5296  -21.0655    0.0000 N   0  0
   16.1171  -20.3511    0.0000 N   0  0
   15.3101  -20.5226    0.0000 C   0  0
   15.2239  -21.3431    0.0000 C   0  0
   15.9775  -21.6786    0.0000 C   0  0
   14.6970  -19.9705    0.0000 C   0  0
   14.8685  -19.1636    0.0000 C   0  0
   14.2554  -18.6115    0.0000 C   0  0
   13.4708  -18.8665    0.0000 C   0  0
   13.2993  -19.6735    0.0000 C   0  0
   13.9124  -20.2255    0.0000 N   0  0
   12.5146  -19.9284    0.0000 C   0  0
  1  2  1  0
  2  3  2  0
  3  4  1  0
  4  5  2  0
  5  6  1  0
  6  7  2  0
  7  8  1  0
  8  9  2  0
  9 10  1  0
  1 10  2  0
  5 10  1  0
 11 12  1  0
 12 13  2  0
 13 14  1  0
 14 15  2  0
 11 15  1  0
 16 17  2  0
 17 18  1  0
 18 19  2  0
 19 20  1  0
 20 21  2  0
 16 21  1  0
 20 22  1  0
 13 16  1  0
  2 14  1  0
M  END
> <Library>
Bioactives

> <Batch>
2012

> <PLATE>
B1002L2012M01

> <WELL>
E20

> <EOS>
EOS100515

> <CCMF_source_vial_barcode>
LV2001695159

> <concentration_mM>
10

> <volume_ul>
30

$$$$
EOS100516
  SciTegic04282016392D

 27 27  0  0  0  0            999 V2000
    7.4091   -1.8720    0.0000 N   0  3
    4.1642   -4.9796    0.0000 P   0  0
    3.9063   -3.5776    0.0000 P   0  0
    3.6318   -4.3556    0.0000 O   0  0
    6.6936   -2.2839    0.0000 C   0  0
    7.2344   -1.0650    0.0000 C   0  0
    8.8318   -4.3473    0.0000 N   0  0
    8.1205   -3.1076    0.0000 C   0  0
    8.8318   -3.5194    0.0000 C   0  0
    6.4191   -0.9817    0.0000 S   0  0
    8.1205   -2.2839    0.0000 C   0  0
    6.0779   -1.7265    0.0000 C   0  0
    7.4050   -4.3473    0.0000 N   0  0
    8.1205   -4.7592    0.0000 C   0  0
    7.4050   -3.5194    0.0000 C   0  0
    3.5361   -5.5163    0.0000 O   0  0
    3.1284   -3.3031    0.0000 O   0  0
    4.1809   -2.8039    0.0000 O   0  0
    4.7924   -4.4430    0.0000 O   0  0
    4.7009   -5.6078    0.0000 O   0  0
    4.6843   -3.8522    0.0000 O   0  0
    9.5516   -3.0951    0.0000 N   0  0
    5.2625   -1.8803    0.0000 C   0  0
    4.9879   -2.6541    0.0000 C   0  0
    6.6104   -3.1076    0.0000 C   0  0
    8.1205   -5.5829    0.0000 C   0  0
    8.9816   -1.2772    0.0000 Cl  0  5
  2  4  1  0
  3 18  1  0
  4  3  1  0
  5  1  1  0
  6  1  2  0
  7  9  2  0
  8 11  1  0
  9  8  1  0
 10  6  1  0
 11  1  1  0
 12  5  2  0
 13 15  1  0
 14 13  2  0
 15  8  2  0
 16  2  2  0
 17  3  2  0
 18 24  1  0
 19  2  1  0
 20  2  1  0
 21  3  1  0
 22  9  1  0
 23 12  1  0
 24 23  1  0
 25  5  1  0
 26 14  1  0
 12 10  1  0
  7 14  1  0
M  CHG  2   1   1  27  -1
M  END
> <Library>
Bioactives

> <Batch>
2012

> <PLATE>
B1002L2012M01

> <WELL>
G20

> <EOS>
EOS100516

> <CCMF_source_vial_barcode>
LV2001695799

> <concentration_mM>
10

> <volume_ul>
30

$$$$
EOS100517
  SciTegic04282016392D

 21 23  0  0  0  0            999 V2000
   -1.5675   -0.5226    0.0000 N   0  0
   -0.9006   -0.1307    0.0000 C   0  0
   -2.2618   -0.1307    0.0000 N   0  0
   -0.9006    0.6324    0.0000 C   0  0
   -2.2618    0.6324    0.0000 C   0  0
   -0.1993   -0.5226    0.0000 N   0  0
   -0.1993    1.0243    0.0000 C   0  0
    0.4607    0.6324    0.0000 N   0  0
   -1.5675   -1.3476    0.0000 C   0  0
   -2.9700    1.0243    0.0000 C   0  0
    0.4607   -0.1307    0.0000 C   0  0
   -2.9906    1.8493    0.0000 C   0  0
   -3.6643    0.6118    0.0000 C   0  0
   -0.1993    1.8493    0.0000 N   0  0
   -4.4274    1.8150    0.0000 C   0  0
   -4.4068    1.0243    0.0000 C   0  0
   -3.7056    2.2618    0.0000 C   0  0
   -5.1699    2.1793    0.0000 Cl  0  0
   -1.5675   -2.1726    0.0000 C   0  0
   -0.7356   -1.3476    0.0000 C   0  0
   -2.4131   -1.3476    0.0000 C   0  0
  2  1  1  0
  3  1  1  0
  4  2  1  0
  5  3  2  0
  6  2  2  0
  7  4  2  0
  8 11  2  0
  9  1  1  0
 10  5  1  0
 11  6  1  0
 12 10  2  0
 13 10  1  0
 14  7  1  0
 15 16  1  0
 16 13  2  0
 17 12  1  0
 18 15  1  0
 19  9  1  0
 20  9  1  0
 21  9  1  0
  4  5  1  0
  8  7  1  0
 15 17  2  0
M  END
> <Library>
Bioactives

> <Batch>
2012

> <PLATE>
B1002L2012M01

> <WELL>
I20

> <EOS>
EOS100517

> <CCMF_source_vial_barcode>
LV2001695203

> <concentration_mM>
10

> <volume_ul>
30

$$$$
EOS100518
  SciTegic04282016392D

 19 19  0  0  0  0            999 V2000
    0.6042    0.0208    0.0000 C   0  0
   -0.1125    0.4333    0.0000 N   0  0
   -0.8250    0.0208    0.0000 C   0  0  2  0  0  0
   -0.8208   -0.8042    0.0000 C   0  0
    1.3167    0.4333    0.0000 C   0  0  1  0  0  0
    0.6042   -0.8125    0.0000 O   0  0
   -1.5458    0.4333    0.0000 C   0  0
   -1.5333   -1.2167    0.0000 O   0  0
    2.0292    0.0208    0.0000 N   0  0
   -0.1083   -1.2167    0.0000 O   0  0
    1.3167    1.2583    0.0000 C   0  0
   -2.2708    0.0083    0.0000 C   0  0
    0.6000    1.6708    0.0000 C   0  0
    2.0292    1.6708    0.0000 C   0  0
   -2.9833    0.4208    0.0000 C   0  0
   -2.2708   -0.8167    0.0000 C   0  0
   -3.6958    0.0083    0.0000 C   0  0
   -2.9833   -1.2292    0.0000 C   0  0
   -3.6958   -0.8167    0.0000 C   0  0
  2  1  1  0
  3  2  1  6
  3  4  1  0
  5  1  1  0
  6  1  2  0
  3  7  1  0
  8  4  2  0
  5  9  1  6
 10  4  1  0
  5 11  1  0
 12  7  1  0
 13 11  1  0
 14 11  1  0
 15 12  2  0
 16 12  1  0
 17 15  1  0
 18 16  2  0
 19 18  1  0
 19 17  2  0
M  END
> <Library>
Bioactives

> <Batch>
2012

> <PLATE>
B1002L2012M01

> <WELL>
K20

> <EOS>
EOS100518

> <CCMF_source_vial_barcode>
LV2001695236

> <concentration_mM>
10

> <volume_ul>
30

$$$$
EOS100519
  SciTegic04282016392D

 28 29  0  0  0  0            999 V2000
    0.7144    1.2821    0.0000 C   0  0
    1.4290    1.6946    0.0000 C   0  0
    0.0000    1.6946    0.0000 C   0  0
    2.1434    1.2821    0.0000 N   0  0
    2.8579    1.6946    0.0000 C   0  0
    3.5724    1.2821    0.0000 C   0  0  1  0  0  0
    2.8579    2.5196    0.0000 O   0  0
    3.9849    0.5676    0.0000 O   0  0
    4.3974    1.2821    0.0000 C   0  0  2  0  0  0
    5.1118    1.6946    0.0000 C   0  0
    5.8263    1.2821    0.0000 N   0  0
    5.1118    2.5196    0.0000 O   0  0
    6.5408    1.6946    0.0000 C   0  0  2  0  0  0
    7.2552    1.2821    0.0000 C   0  0
    6.5408    2.5196    0.0000 C   0  0  1  0  0  0
    7.2552    2.9320    0.0000 C   0  0
    5.8263    2.9320    0.0000 C   0  0
    7.2552    0.4571    0.0000 O   0  0
    7.9697    1.6946    0.0000 N   0  0
    8.7234    1.3590    0.0000 C   0  0  1  0  0  0
    9.2754    1.9721    0.0000 C   0  0
    8.8629    2.6866    0.0000 C   0  0
    8.0559    2.5151    0.0000 C   0  0
    8.8949    0.5520    0.0000 C   0  0
    9.6795    0.2971    0.0000 O   0  0
    8.2818    0.0000    0.0000 O   0  0
   10.2926    0.8491    0.0000 C   0  0
    5.8263    3.7571    0.0000 C   0  0
  1  2  1  0
  1  3  1  0
  2  4  1  0
  4  5  1  0
  6  5  1  6
  5  7  2  0
  6  8  1  0
  9  8  1  0
  6  9  1  0
  9 10  1  1
 10 11  1  0
 10 12  2  0
 13 11  1  1
 13 14  1  0
 13 15  1  0
 15 16  1  6
 15 17  1  0
 14 18  2  0
 14 19  1  0
 20 19  1  0
 20 21  1  0
 21 22  1  0
 22 23  1  0
 23 19  1  0
 20 24  1  1
 24 25  1  0
 24 26  2  0
 25 27  1  0
 17 28  1  0
M  END
> <Library>
Bioactives

> <Batch>
2012

> <PLATE>
B1002L2012M01

> <WELL>
M20

> <EOS>
EOS100519

> <CCMF_source_vial_barcode>
LV2001695225

> <concentration_mM>
10

> <volume_ul>
30

$$$$
EOS100520
  SciTegic04282016392D

 33 34  0  0  1  0            999 V2000
    1.6500    0.0000    0.0000 O   0  0
    0.8250    0.0000    0.0000 C   0  0
    0.4125   -0.7145    0.0000 O   0  0
    0.4125    0.7145    0.0000 C   0  0
   -0.4125    0.7145    0.0000 C   0  0
   -0.8250    0.0000    0.0000 C   0  0
   -0.4125   -0.7145    0.0000 O   0  0
   -1.6500    0.0000    0.0000 O   0  0
    7.3438    0.7755    0.0000 C   0  0
    6.6293    1.1880    0.0000 C   0  0  1  0  0  0
    5.9148    0.7755    0.0000 C   0  0
    5.9148   -0.0495    0.0000 N   0  0
    6.6293   -0.4620    0.0000 C   0  0
    6.6293   -1.2870    0.0000 C   0  0
    5.9148   -1.6995    0.0000 C   0  0
    5.9148   -2.5245    0.0000 C   0  0
    5.2004   -2.9370    0.0000 C   0  0
    5.2004   -3.7620    0.0000 C   0  0
    4.4859   -4.1745    0.0000 C   0  0
    3.7714   -3.7620    0.0000 C   0  0
    3.7714   -2.9370    0.0000 C   0  0
    4.4859   -2.5245    0.0000 C   0  0
    5.2004   -1.2870    0.0000 C   0  0
    5.2004   -0.4620    0.0000 C   0  0
    6.6293    2.0130    0.0000 C   0  0  1  0  0  0
    5.9148    2.4255    0.0000 O   0  0
    7.3438    2.4255    0.0000 C   0  0
    7.3438    3.2505    0.0000 C   0  0
    8.0583    3.6630    0.0000 C   0  0
    8.7727    3.2505    0.0000 C   0  0
    9.4872    3.6630    0.0000 O   0  0
    8.7727    2.4255    0.0000 C   0  0
    8.0583    2.0130    0.0000 C   0  0
  1  2  1  0
  2  3  2  0
  2  4  1  0
  4  5  2  0
  5  6  1  0
  6  7  1  0
  6  8  2  0
 10  9  1  1
 10 11  1  0
 11 12  1  0
 12 13  1  0
 13 14  1  0
 14 15  1  0
 15 16  1  0
 16 17  1  0
 17 18  2  0
 18 19  1  0
 19 20  2  0
 20 21  1  0
 21 22  2  0
 17 22  1  0
 15 23  1  0
 23 24  1  0
 12 24  1  0
 10 25  1  0
 25 26  1  1
 25 27  1  0
 27 28  2  0
 28 29  1  0
 29 30  2  0
 30 31  1  0
 30 32  1  0
 32 33  2  0
 27 33  1  0
M  END
> <Library>
Bioactives

> <Batch>
2012

> <PLATE>
B1002L2012M01

> <WELL>
O20

> <EOS>
EOS100520

> <CCMF_source_vial_barcode>
LV2001695149

> <concentration_mM>
10

> <volume_ul>
30

$$$$
EOS100521
  SciTegic04282016392D

 29 30  0  0  0  0            999 V2000
    0.5303   -4.6596    0.0000 C   0  0
    0.5303   -5.4863    0.0000 C   0  0
    1.2438   -5.8955    0.0000 C   0  0
    1.9572   -5.4863    0.0000 C   0  0
    1.9572   -4.6596    0.0000 C   0  0
    1.2438   -4.2421    0.0000 C   0  0
    2.6680   -4.2463    0.0000 C   0  0
    3.3820   -4.6596    0.0000 C   0  0
    4.0960   -4.2463    0.0000 C   0  0
    4.8099   -4.6596    0.0000 C   0  0
    5.5239   -4.2463    0.0000 C   0  0
    6.2379   -4.6596    0.0000 C   0  0
    6.9519   -4.2463    0.0000 C   0  0
    7.6659   -4.6596    0.0000 C   0  0
    8.3798   -4.2463    0.0000 C   0  0
    9.0938   -4.6596    0.0000 N   0  0
    1.8246   -3.6534    0.0000 C   0  0
    0.6513   -3.6534    0.0000 C   0  0
    2.6726   -5.9007    0.0000 C   0  0
    4.0960   -3.4196    0.0000 C   0  0
    6.9519   -3.4196    0.0000 C   0  0
    8.3798   -3.4196    0.0000 O   0  0
    9.8071   -4.2475    0.0000 C   0  0
   10.5218   -4.6596    0.0000 C   0  0
   11.2339   -4.2468    0.0000 C   0  0
   11.2325   -3.4220    0.0000 C   0  0
   10.5131   -3.0118    0.0000 C   0  0
    9.8039   -3.4270    0.0000 C   0  0
   11.9471   -3.0061    0.0000 O   0  0
  5  7  1  0
 14 15  1  0
  1  2  1  0
 15 16  1  0
 16 23  1  0
  7  8  2  0
  6 17  1  0
  1  6  1  0
  6 18  1  0
  8  9  1  0
  4 19  1  0
  2  3  1  0
  9 20  1  0
  9 10  2  0
 13 21  1  0
  3  4  1  0
 15 22  2  0
 10 11  1  0
  4  5  2  0
 23 24  2  0
 11 12  2  0
 24 25  1  0
  5  6  1  0
 25 26  2  0
 12 13  1  0
 26 27  1  0
 27 28  2  0
 28 23  1  0
 13 14  2  0
 26 29  1  0
M  END
> <Library>
Bioactives

> <Batch>
2012

> <PLATE>
B1002L2012M01

> <WELL>
A22

> <EOS>
EOS100521

> <CCMF_source_vial_barcode>
LV2001695735

> <concentration_mM>
10

> <volume_ul>
30

$$$$
EOS100522
  SciTegic04282016392D

 42 45  0  0  0  0            999 V2000
   -7.1253   -4.2007    0.0000 Cl  0  0
   -6.3184   -4.0291    0.0000 C   0  0
   -5.7663   -4.6422    0.0000 C   0  0
   -4.9594   -4.4707    0.0000 C   0  0
   -4.7044   -3.6861    0.0000 C   0  0
   -5.2564   -3.0730    0.0000 C   0  0
   -6.0634   -3.2445    0.0000 C   0  0
   -3.8974   -3.5146    0.0000 C   0  0
   -3.6425   -2.7299    0.0000 N   0  0
   -4.1274   -2.0625    0.0000 C   0  0
   -4.9524   -2.0625    0.0000 C   0  0
   -5.3649   -1.3480    0.0000 C   0  0
   -5.7774   -0.6336    0.0000 C   0  0
   -6.6024   -0.6336    0.0000 O   0  0
   -5.3649    0.0809    0.0000 O   0  5
   -6.0794   -1.7605    0.0000 C   0  0
   -4.6505   -0.9355    0.0000 C   0  0
   -3.6425   -1.3951    0.0000 C   0  0
   -2.8579   -1.6500    0.0000 C   0  0
   -2.8579   -2.4750    0.0000 C   0  0
   -2.1434   -2.8875    0.0000 C   0  0
   -1.4289   -2.4750    0.0000 C   0  0
   -1.4289   -1.6500    0.0000 C   0  0
   -2.1434   -1.2375    0.0000 C   0  0
   -0.7145   -1.2375    0.0000 O   0  0
    0.0000   -1.6500    0.0000 C   0  0
    0.7145   -1.2375    0.0000 C   0  0
    0.7145   -0.4125    0.0000 C   0  0
    1.4289    0.0000    0.0000 C   0  0
    2.1434   -0.4125    0.0000 C   0  0
    2.1434   -1.2375    0.0000 C   0  0
    1.4289   -1.6500    0.0000 N   0  0
    2.8579   -1.6500    0.0000 C   0  0
    3.5724   -1.2375    0.0000 C   0  0
    3.5724   -0.4125    0.0000 C   0  0
    2.8579    0.0000    0.0000 C   0  0
   -3.8974   -0.6104    0.0000 S   0  0
   -3.3454    0.0027    0.0000 C   0  0
   -2.7323   -0.5494    0.0000 C   0  0
   -3.9585    0.5547    0.0000 C   0  0
   -2.7934    0.6157    0.0000 C   0  0
   -4.9524    0.7954    0.0000 Na  0  3  0  0  0 15
  1  2  1  0
  2  7  2  0
  2  3  1  0
  3  4  2  0
  4  5  1  0
  5  6  2  0
  5  8  1  0
  6  7  1  0
  8  9  1  0
  9 20  1  0
  9 10  1  0
 10 11  1  0
 10 18  2  0
 11 12  1  0
 12 13  1  0
 12 16  1  0
 12 17  1  0
 13 14  2  0
 13 15  1  0
 18 19  1  0
 18 37  1  0
 19 24  2  0
 19 20  1  0
 20 21  2  0
 21 22  1  0
 22 23  2  0
 23 24  1  0
 23 25  1  0
 25 26  1  0
 26 27  1  0
 27 32  1  0
 27 28  2  0
 28 29  1  0
 29 30  2  0
 30 36  1  0
 30 31  1  0
 31 32  2  0
 31 33  1  0
 33 34  2  0
 34 35  1  0
 35 36  2  0
 37 38  1  0
 38 39  1  0
 38 40  1  0
 38 41  1  0
M  CHG  2  15  -1  42   1
M  END
> <Library>
Bioactives

> <Batch>
2012

> <PLATE>
B1002L2012M01

> <WELL>
C22

> <EOS>
EOS100522

> <CCMF_source_vial_barcode>
LV2001695148

> <concentration_mM>
10

> <volume_ul>
30

$$$$
EOS100523
  SciTegic04282016392D

 45 50  0  0  0  0            999 V2000
   -4.0753    1.8809    0.0000 C   0  0
   -3.2526    1.9425    0.0000 C   0  0
   -2.8946    2.6858    0.0000 C   0  0
   -2.7878    1.2609    0.0000 N   0  0
   -1.9721    1.3838    0.0000 C   0  0
   -1.3673    0.8227    0.0000 C   0  0
   -3.2003    0.5464    0.0000 C   0  0
   -2.8989   -0.2216    0.0000 C   0  0
   -2.1106   -0.4647    0.0000 C   0  0
   -1.4289    0.0000    0.0000 N   0  0
   -0.7145   -0.4125    0.0000 C   0  0
   -0.7145   -1.2375    0.0000 N   0  0
    0.0000   -1.6500    0.0000 C   0  0
    0.0000   -2.4750    0.0000 N   0  0
   -0.7145   -2.8875    0.0000 C   0  0
   -0.7145   -3.7125    0.0000 C   0  0
   -1.4289   -4.1250    0.0000 C   0  0
   -2.1434   -3.7125    0.0000 N   0  0
   -2.8579   -4.1250    0.0000 C   0  0
   -2.8579   -4.9500    0.0000 C   0  0
   -3.5724   -5.3625    0.0000 C   0  0
   -4.2868   -4.9500    0.0000 C   0  0
   -4.2868   -4.1250    0.0000 C   0  0
   -3.5724   -3.7125    0.0000 C   0  0
   -2.1434   -2.8875    0.0000 C   0  0
   -1.4289   -2.4750    0.0000 C   0  0
    0.7145   -1.2375    0.0000 C   0  0
    0.7145   -0.4125    0.0000 C   0  0
    1.4289    0.0000    0.0000 C   0  0
    2.1434   -0.4125    0.0000 C   0  0
    2.8579    0.0000    0.0000 O   0  0
    2.8579    0.8250    0.0000 C   0  0
    3.5724    1.2375    0.0000 C   0  0
    3.5724    2.0625    0.0000 C   0  0
    4.2868    2.4750    0.0000 N   0  0
    4.2868    3.3000    0.0000 C   0  0
    5.0013    3.7125    0.0000 C   0  0
    5.7158    3.3000    0.0000 C   0  0
    5.7158    2.4750    0.0000 C   0  0
    5.0013    2.0625    0.0000 C   0  0
    2.1434   -1.2375    0.0000 C   0  0
    2.8579   -1.6500    0.0000 O   0  0
    2.8579   -2.4750    0.0000 C   0  0
    1.4289   -1.6500    0.0000 C   0  0
    0.0000    0.0000    0.0000 N   0  0
  1  2  1  0
  2  3  1  0
  2  4  1  0
  4  5  1  0
  5  6  1  0
  4  7  1  0
  7  8  1  0
  8  9  1  0
  9 10  1  0
  6 10  1  0
 10 11  1  0
 11 12  2  0
 12 13  1  0
 13 14  1  0
 14 15  1  0
 15 16  1  0
 16 17  1  0
 17 18  1  0
 18 19  1  0
 19 20  1  0
 20 21  1  0
 21 22  1  0
 22 23  1  0
 23 24  1  0
 19 24  1  0
 18 25  1  0
 25 26  1  0
 15 26  1  0
 13 27  2  0
 27 28  1  0
 28 29  1  0
 29 30  2  0
 30 31  1  0
 31 32  1  0
 32 33  1  0
 33 34  1  0
 34 35  1  0
 35 36  1  0
 36 37  1  0
 37 38  1  0
 38 39  1  0
 39 40  1  0
 35 40  1  0
 30 41  1  0
 41 42  1  0
 42 43  1  0
 41 44  2  0
 27 44  1  0
 28 45  2  0
 11 45  1  0
M  END
> <Library>
Bioactives

> <Batch>
2012

> <PLATE>
B1002L2012M01

> <WELL>
E22

> <EOS>
EOS100523

> <CCMF_source_vial_barcode>
LV2001695707

> <concentration_mM>
10

> <volume_ul>
30

$$$$
EOS100524
  SciTegic04282016392D

 33 35  0  0  0  0            999 V2000
    1.2462    3.1281    0.0000 C   0  0
    1.2462    2.3031    0.0000 C   0  0
    1.9607    1.8906    0.0000 N   0  0
    2.6752    2.3031    0.0000 C   0  0
    2.6752    3.1281    0.0000 N   0  0
    1.9607    3.5406    0.0000 C   0  0
    0.4493    3.3417    0.0000 S   0  0
    0.0000    2.6498    0.0000 C   0  0
    0.5192    2.0086    0.0000 C   0  0
    1.9607    4.3628    0.0000 N   0  0
    2.6727    4.7739    0.0000 C   0  0
    3.3847    4.3628    0.0000 C   0  0
    4.0967    4.7739    0.0000 C   0  0
    4.8504    4.4383    0.0000 S   0  0
    5.4025    5.0514    0.0000 C   0  0
    4.9899    5.7659    0.0000 N   0  0
    4.1829    5.5944    0.0000 C   0  0
    6.2201    4.9655    0.0000 N   0  0
    6.5545    4.2144    0.0000 C   0  0
    7.3721    4.1285    0.0000 N   0  0
    6.0712    3.5493    0.0000 O   0  0
    7.8706    4.7823    0.0000 C   0  0
    8.6889    4.6772    0.0000 C   0  0
    9.1891    5.3332    0.0000 C   0  0
    8.8710    6.0945    0.0000 C   0  0
    8.0527    6.1996    0.0000 C   0  0
    7.5525    5.5435    0.0000 C   0  0
   10.0045    5.2284    0.0000 Cl  0  0
    6.3221    0.8250    0.0000 C   0  0
    7.1471    0.8250    0.0000 S   0  0
    7.1471    1.6500    0.0000 O   0  0
    7.1471    0.0000    0.0000 O   0  0
    7.9721    0.8250    0.0000 O   0  0
  1  2  1  0
  2  3  2  0
  3  4  1  0
  4  5  2  0
  5  6  1  0
  6  1  2  0
  1  7  1  0
  7  8  1  0
  8  9  2  0
  9  2  1  0
  6 10  1  0
 10 11  1  0
 11 12  1  0
 12 13  1  0
 13 14  1  0
 14 15  1  0
 15 16  2  0
 16 17  1  0
 17 13  2  0
 15 18  1  0
 18 19  1  0
 19 20  1  0
 19 21  2  0
 20 22  1  0
 22 23  2  0
 23 24  1  0
 24 25  2  0
 25 26  1  0
 26 27  2  0
 27 22  1  0
 24 28  1  0
 29 30  1  0
 30 31  2  0
 30 32  2  0
 30 33  1  0
M  END
> <Library>
Bioactives

> <Batch>
2012

> <PLATE>
B1002L2012M01

> <WELL>
G22

> <EOS>
EOS100524

> <CCMF_source_vial_barcode>
LV2001695138

> <concentration_mM>
10

> <volume_ul>
30

$$$$
EOS100525
  SciTegic04282016392D

 32 35  0  0  0  0            999 V2000
    0.0000    2.1975    0.0000 C   0  0
    0.4125    1.4830    0.0000 C   0  0
    1.2195    1.6546    0.0000 C   0  0  2  0  0  0
    1.3057    2.4750    0.0000 C   0  0  1  0  0  0
    0.5521    2.8106    0.0000 C   0  0
    1.8891    3.0584    0.0000 C   0  0
    2.6036    2.6459    0.0000 C   0  0
    1.9339    1.2421    0.0000 C   0  0
    1.7204    0.4452    0.0000 O   0  0
    2.6485    1.6546    0.0000 O   0  0
    2.6036    1.8209    0.0000 C   0  0
    3.3181    1.4084    0.0000 C   0  0
    4.0325    1.8209    0.0000 C   0  0
    4.0325    2.6459    0.0000 C   0  0
    3.3181    3.0584    0.0000 C   0  0
    4.7470    1.4084    0.0000 C   0  0
    4.7470    0.5834    0.0000 C   0  0
    5.4615    0.1709    0.0000 C   0  0
    6.1760    0.5834    0.0000 C   0  0
    6.1760    1.4084    0.0000 C   0  0
    5.4615    1.8209    0.0000 C   0  0
    6.7594    0.0000    0.0000 N   0  0
    7.4738    0.4125    0.0000 C   0  0
    8.1883    0.0000    0.0000 N   0  0
    7.4738    1.2375    0.0000 O   0  0
    8.9028    0.4125    0.0000 C   0  0
    9.6173    0.0000    0.0000 C   0  0
   10.3317    0.4125    0.0000 C   0  0
   10.3317    1.2375    0.0000 C   0  0
    9.6173    1.6500    0.0000 C   0  0
    8.9028    1.2375    0.0000 C   0  0
    1.8891    3.8834    0.0000 O   0  0
  1  2  1  0
  3  2  1  0
  3  4  1  0
  4  5  1  0
  5  1  1  0
  4  6  1  1
  6  7  1  0
  3  8  1  6
  8  9  1  0
  8 10  2  0
  7 11  2  0
 11 12  1  0
 12 13  2  0
 13 14  1  0
 14 15  2  0
 15  7  1  0
 13 16  1  0
 16 17  2  0
 17 18  1  0
 18 19  2  0
 19 20  1  0
 20 21  2  0
 21 16  1  0
 19 22  1  0
 22 23  1  0
 23 24  1  0
 23 25  2  0
 24 26  1  0
 26 27  2  0
 27 28  1  0
 28 29  2  0
 29 30  1  0
 30 31  2  0
 31 26  1  0
  6 32  2  0
M  END
> <Library>
Bioactives

> <Batch>
2012

> <PLATE>
B1002L2012M01

> <WELL>
I22

> <EOS>
EOS100525

> <CCMF_source_vial_barcode>
LV2001695725

> <concentration_mM>
10

> <volume_ul>
30

$$$$
EOS100526
  SciTegic04282016392D

 37 41  0  0  1  0            999 V2000
    3.9720    0.0000    0.0000 C   0  0
    3.6899    0.7752    0.0000 C   0  0
    3.1596    0.1433    0.0000 C   0  0
    2.9115    2.8145    0.0000 C   0  0
    3.4417    2.1825    0.0000 C   0  0
    3.1596    1.4072    0.0000 C   0  0
    2.3471    1.2640    0.0000 C   0  0
    2.0990    2.6712    0.0000 C   0  0
    1.8168    1.8960    0.0000 C   0  0
    0.9923    1.8960    0.0000 O   0  0
    0.7650    2.7178    0.0000 C   0  0
    1.4489    3.1791    0.0000 O   0  0
    0.3776    3.4463    0.0000 F   0  0
    0.0000    2.4087    0.0000 F   0  0
    4.4043    1.1877    0.0000 C   0  0
    4.4043    2.0127    0.0000 N   0  0
    5.1188    0.7752    0.0000 O   0  0
    5.1188    2.4252    0.0000 C   0  0
    5.1188    3.2502    0.0000 C   0  0
    5.8333    3.6627    0.0000 C   0  0
    5.8333    2.0127    0.0000 C   0  0
    4.4043    3.6627    0.0000 F   0  0
    7.3324    3.5052    0.0000 N   0  0
    7.8173    2.8377    0.0000 C   0  0
    7.3324    2.1703    0.0000 C   0  0
    6.5478    2.4252    0.0000 C   0  0
    6.5478    3.2502    0.0000 C   0  0
    8.6423    2.8377    0.0000 C   0  0
    8.8558    2.0409    0.0000 C   0  0
    9.6527    1.8273    0.0000 O   0  0
    9.4548    2.9810    0.0000 C   0  0
    8.5705    3.6596    0.0000 C   0  0
    7.5873    4.2898    0.0000 C   0  0
    7.0353    4.9029    0.0000 C   0  0  1  0  0  0
    6.2283    4.7314    0.0000 O   0  0
    7.2902    5.6876    0.0000 C   0  0
    6.7382    6.3006    0.0000 O   0  0
  1  3  1  0
 16 18  1  0
  8  4  2  0
 18 19  2  0
 19 20  1  0
 20 27  2  0
  4  5  1  0
 26 21  2  0
 21 18  1  0
  2  1  1  0
 19 22  1  0
 26 27  1  0
  9 10  1  0
 10 11  1  0
 24 25  2  0
 11 12  1  0
 12  8  1  0
  5  6  2  0
 23 24  1  0
 25 26  1  0
 27 23  1  0
 11 13  1  0
 24 28  1  0
  3  2  1  0
 28 29  1  0
 11 14  1  0
 29 30  1  0
  6  2  1  0
 28 31  1  0
  6  7  1  0
 28 32  1  0
  2 15  1  0
 23 33  1  0
  7  9  2  0
 34 33  1  0
 15 16  1  0
 34 35  1  1
  8  9  1  0
 34 36  1  0
 15 17  2  0
 36 37  1  0
M  END
> <Library>
Bioactives

> <Batch>
2012

> <PLATE>
B1002L2012M01

> <WELL>
K22

> <EOS>
EOS100526

> <CCMF_source_vial_barcode>
LV2001695218

> <concentration_mM>
10

> <volume_ul>
30

$$$$
EOS100527
  SciTegic04282016392D

 17 18  0  0  0  0            999 V2000
    0.7363   -0.2158    0.0000 N   0  0
    1.2843    0.3836    0.0000 C   0  0
    0.9795   -1.0001    0.0000 N   0  3
    1.1165    1.1884    0.0000 N   0  0
    2.1028    0.2945    0.0000 N   0  0
   -1.0309   -0.0446    0.0000 N   0  0
    0.4178   -1.6028    0.0000 O   0  5
    0.4007    1.6063    0.0000 C   0  0
    1.7843   -1.1508    0.0000 O   0  0
   -1.7399    0.3596    0.0000 C   0  0
   -0.3117    1.1884    0.0000 C   0  0
   -0.3117    0.3596    0.0000 C   0  0
   -2.4454   -0.0582    0.0000 Cl  0  0
    1.8460    1.5926    0.0000 C   0  0
    2.4419    1.0480    0.0000 C   0  0
   -1.7399    1.1884    0.0000 C   0  0
   -1.0309    1.5926    0.0000 C   0  0
  2  1  2  0
  3  1  1  0
  4  2  1  0
  5  2  1  0
  6 12  2  0
  7  3  1  0
  8  4  1  0
  9  3  2  0
 10 16  2  0
 11  8  1  0
 12 11  1  0
 13 10  1  0
 14  4  1  0
 15  5  1  0
 16 17  1  0
 17 11  2  0
 15 14  1  0
  6 10  1  0
M  CHG  2   3   1   7  -1
M  END
> <Library>
Bioactives

> <Batch>
2012

> <PLATE>
B1002L2012M01

> <WELL>
M22

> <EOS>
EOS100527

> <CCMF_source_vial_barcode>
LV2001695708

> <concentration_mM>
10

> <volume_ul>
30

$$$$
EOS100528
  SciTegic04282016392D

 35 38  0  0  0  0            999 V2000
    4.2686    2.8775    0.0000 C   0  0
    4.2686    2.0525    0.0000 C   0  0
    4.9831    1.6400    0.0000 C   0  0
    5.6975    2.0525    0.0000 C   0  0
    5.6975    2.8775    0.0000 C   0  0
    4.9831    3.2900    0.0000 C   0  0
    6.4822    1.7976    0.0000 N   0  0
    6.9671    2.4650    0.0000 C   0  0
    6.4822    3.1324    0.0000 C   0  0
    6.7362    3.9143    0.0000 C   0  0
    6.1861    4.5253    0.0000 C   0  0
    7.5404    4.0852    0.0000 N   0  0
    6.4410    5.3099    0.0000 C   0  0
    5.8890    5.9230    0.0000 C   0  0
    5.0820    5.7515    0.0000 C   0  0
    4.8271    4.9669    0.0000 C   0  0
    5.3791    4.3538    0.0000 C   0  0
    7.7944    4.8672    0.0000 C   0  0
    3.5566    1.6414    0.0000 C   0  0
    2.8462    1.2318    0.0000 C   0  0
    2.1358    0.8221    0.0000 C   0  0
    1.4240    1.2336    0.0000 N   0  0
    0.7117    0.8229    0.0000 C   0  0
    0.0000    1.2344    0.0000 C   0  0
    2.1353    0.0000    0.0000 O   0  0
    7.7892    2.4650    0.0000 O   0  0
    8.6014    5.0387    0.0000 C   0  0
    8.8563    5.8233    0.0000 C   0  0
    8.3043    6.4364    0.0000 C   0  0
    7.4973    6.2649    0.0000 C   0  0
    7.2424    5.4802    0.0000 C   0  0
    8.5584    7.2183    0.0000 C   0  0
    9.3625    7.3892    0.0000 N   0  0
    9.9126    6.7783    0.0000 C   0  0
    9.6166    8.1711    0.0000 C   0  0
  1  2  2  0
  2  3  1  0
  3  4  2  0
  4  5  1  0
  5  6  2  0
  6  1  1  0
  4  7  1  0
  7  8  1  0
  8  9  1  0
  9  5  1  0
  9 10  2  0
 10 11  1  0
 10 12  1  0
 11 13  2  0
 13 14  1  0
 14 15  2  0
 15 16  1  0
 16 17  2  0
 17 11  1  0
 12 18  1  0
  2 19  1  0
 19 20  3  0
 20 21  1  0
 21 22  1  0
 22 23  1  0
 23 24  1  0
 21 25  2  0
  8 26  2  0
 18 27  2  0
 27 28  1  0
 28 29  2  0
 29 30  1  0
 30 31  2  0
 31 18  1  0
 29 32  1  0
 32 33  1  0
 33 34  1  0
 33 35  1  0
M  END
> <Library>
Bioactives

> <Batch>
2012

> <PLATE>
B1002L2012M01

> <WELL>
O22

> <EOS>
EOS100528

> <CCMF_source_vial_barcode>
LV2001695229

> <concentration_mM>
10

> <volume_ul>
30

$$$$
EOS100529
  SciTegic04282016392D

 19 21  0  0  0  0            999 V2000
    4.7079    3.7125    0.0000 C   0  0
    3.9934    3.3000    0.0000 C   0  0
    3.9934    2.4750    0.0000 C   0  0
    3.2789    2.0625    0.0000 C   0  0
    3.2789    1.2375    0.0000 C   0  0
    3.9934    0.8250    0.0000 C   0  0
    3.9934    0.0000    0.0000 C   0  0
    3.2789   -0.4125    0.0000 N   0  0
    2.5645    0.0000    0.0000 C   0  0
    1.7798   -0.2549    0.0000 C   0  0
    1.5249   -1.0396    0.0000 C   0  0
    2.0769   -1.6527    0.0000 N   0  0
    0.7179   -1.2111    0.0000 O   0  0
    1.2949    0.4125    0.0000 C   0  0
    1.7798    1.0799    0.0000 N   0  0
    2.5645    0.8250    0.0000 N   0  0
    2.5645    2.4750    0.0000 C   0  0
    2.5645    3.3000    0.0000 C   0  0
    3.2789    3.7125    0.0000 C   0  0
  1  2  1  0
  2  3  2  0
  3  4  1  0
  4  5  1  0
  5  6  2  0
  6  7  1  0
  7  8  2  0
  8  9  1  0
  9 10  2  0
 10 11  1  0
 11 12  1  0
 11 13  2  0
 10 14  1  0
 14 15  2  0
 15 16  1  0
  9 16  1  0
  5 16  1  0
  4 17  2  0
 17 18  1  0
 18 19  2  0
  2 19  1  0
M  END
> <Library>
Bioactives

> <Batch>
2012

> <PLATE>
B1002L2012M01

> <WELL>
B1

> <EOS>
EOS100529

> <CCMF_source_vial_barcode>
LV2001696508

> <concentration_mM>
10

> <volume_ul>
30

$$$$
EOS100530
  SciTegic04282016392D

 19 20  0  0  0  0            999 V2000
   17.1720  -10.2236    0.0000 C   0  0
   15.7431  -10.2236    0.0000 N   0  0
   16.4576   -9.8111    0.0000 C   0  0
   17.1720  -11.0486    0.0000 O   0  0
   17.8865   -9.8111    0.0000 O   0  0
   15.0286   -9.8111    0.0000 C   0  0
   15.0286   -8.9860    0.0000 O   0  0
   13.5996  -11.4612    0.0000 C   0  0
   14.3141  -11.0486    0.0000 N   0  0
   14.3141  -10.2236    0.0000 C   0  0
   13.5996   -9.8111    0.0000 C   0  0
   12.8851  -10.2236    0.0000 C   0  0
   12.1707   -9.8111    0.0000 C   0  0
   11.4562  -10.2236    0.0000 C   0  0
   11.4562  -11.0486    0.0000 C   0  0
   12.1707  -11.4612    0.0000 C   0  0
   12.8851  -11.0486    0.0000 C   0  0
   13.5996   -8.9860    0.0000 O   0  0
   13.5996  -12.2861    0.0000 Cl  0  0
  2  3  1  0
  1  3  1  0
  1  4  2  0
  1  5  1  0
  6  7  2  0
  8  9  1  0
  9 10  2  0
 10 11  1  0
 11 12  2  0
 12 13  1  0
 13 14  2  0
 14 15  1  0
 15 16  2  0
 16 17  1  0
  8 17  2  0
 12 17  1  0
 11 18  1  0
  8 19  1  0
  6 10  1  0
  2  6  1  0
M  END
> <Library>
Bioactives

> <Batch>
2012

> <PLATE>
B1002L2012M01

> <WELL>
D1

> <EOS>
EOS100530

> <CCMF_source_vial_barcode>
LV2001696503

> <concentration_mM>
10

> <volume_ul>
30

$$$$
EOS100531
  SciTegic04282016392D

 46 51  0  0  0  0            999 V2000
    4.2868    3.9233    0.0000 N   0  0
    4.2868    3.0983    0.0000 C   0  0
    5.0013    2.6858    0.0000 N   0  0
    5.7158    3.0983    0.0000 C   0  0
    5.7158    3.9233    0.0000 C   0  0
    5.0013    4.3358    0.0000 C   0  0
    6.4302    2.6858    0.0000 C   0  0
    7.1447    3.0983    0.0000 C   0  0
    7.1447    3.9233    0.0000 C   0  0
    6.4302    4.3358    0.0000 C   0  0
    3.5724    2.6858    0.0000 N   0  0
    2.8907    3.1506    0.0000 C   0  0
    2.1023    2.9074    0.0000 C   0  0
    1.8010    2.1394    0.0000 C   0  0
    2.2135    1.4250    0.0000 N   0  0
    3.0292    1.3020    0.0000 C   0  0
    3.6340    1.8631    0.0000 C   0  0
    1.7487    0.7433    0.0000 C   0  0
    2.1067    0.0000    0.0000 C   0  0
    0.9260    0.8050    0.0000 C   0  0
    7.8592    4.3358    0.0000 O   0  0
    8.5736    3.9233    0.0000 C   0  0
    7.8592    2.6858    0.0000 O   0  0
    8.5736    3.0983    0.0000 C   0  0
    9.2881    2.6858    0.0000 C   0  0
   10.0026    3.0983    0.0000 C   0  0
   10.7170    2.6858    0.0000 N   0  0
   10.7170    1.8608    0.0000 C   0  0
   11.4316    1.4483    0.0000 C   0  0
   12.1460    1.8608    0.0000 C   0  0
   12.1460    2.6858    0.0000 C   0  0
   11.4316    3.0983    0.0000 C   0  0
    5.0013    5.1608    0.0000 N   0  0
    4.2868    5.5733    0.0000 C   0  0
    4.2868    6.3983    0.0000 C   0  0
    3.5724    6.8108    0.0000 C   0  0
    2.8579    6.3983    0.0000 N   0  0
    2.8579    5.5733    0.0000 C   0  0
    3.5724    5.1608    0.0000 C   0  0
    2.1434    6.8108    0.0000 C   0  0
    1.4290    6.3983    0.0000 C   0  0
    0.7145    6.8108    0.0000 C   0  0
    0.0000    6.3983    0.0000 C   0  0
    0.0000    5.5733    0.0000 C   0  0
    0.7145    5.1608    0.0000 C   0  0
    1.4290    5.5733    0.0000 C   0  0
  1  2  2  0
  2  3  1  0
  3  4  2  0
  4  5  1  0
  5  6  2  0
  6  1  1  0
  4  7  1  0
  7  8  2  0
  8  9  1  0
  9 10  2  0
 10  5  1  0
  2 11  1  0
 11 12  1  0
 12 13  1  0
 13 14  1  0
 14 15  1  0
 15 16  1  0
 16 17  1  0
 17 11  1  0
 15 18  1  0
 18 19  1  0
 18 20  1  0
  9 21  1  0
 21 22  1  0
  8 23  1  0
 23 24  1  0
 24 25  1  0
 25 26  1  0
 26 27  1  0
 27 28  1  0
 28 29  1  0
 29 30  1  0
 30 31  1  0
 31 32  1  0
 32 27  1  0
  6 33  1  0
 33 34  1  0
 34 35  1  0
 35 36  1  0
 36 37  1  0
 37 38  1  0
 38 39  1  0
 39 34  1  0
 37 40  1  0
 40 41  1  0
 41 42  1  0
 42 43  1  0
 43 44  1  0
 44 45  1  0
 45 46  1  0
 46 41  1  0
M  END
> <Library>
Bioactives

> <Batch>
2012

> <PLATE>
B1002L2012M01

> <WELL>
F1

> <EOS>
EOS100531

> <CCMF_source_vial_barcode>
LV2001696532

> <concentration_mM>
10

> <volume_ul>
30

$$$$
EOS100532
  SciTegic04282016392D

 33 35  0  0  0  0            999 V2000
   -3.2151   -0.4125    0.0000 C   0  0
   -3.2151   -1.2375    0.0000 N   0  0
   -2.5006   -1.6500    0.0000 C   0  0
   -1.7862   -1.2375    0.0000 C   0  0
   -1.7862   -0.4125    0.0000 C   0  0
   -2.5006    0.0000    0.0000 N   0  0
   -1.0717   -1.6500    0.0000 C   0  0
   -1.0717   -2.4750    0.0000 O   0  0
   -0.3572   -1.2375    0.0000 N   0  0
    0.3572   -1.6500    0.0000 C   0  0
    1.0717   -1.2375    0.0000 C   0  0
    1.7862   -1.6500    0.0000 C   0  0
    2.5006   -1.2375    0.0000 C   0  0
    3.2151   -1.6500    0.0000 C   0  0
    3.9296   -1.2375    0.0000 C   0  0
    4.6441   -1.6500    0.0000 C   0  0
    4.6441   -2.4750    0.0000 O   0  0
    5.3585   -1.2375    0.0000 N   0  0
    6.0730   -1.6500    0.0000 O   0  0
   -3.9296    0.0000    0.0000 N   0  0
   -3.9296    0.8250    0.0000 C   0  0
   -3.2151    1.2375    0.0000 C   0  0
   -3.2151    2.0625    0.0000 C   0  0
   -3.9296    2.4750    0.0000 C   0  0
   -4.6441    2.0625    0.0000 C   0  0
   -4.6441    1.2375    0.0000 C   0  0
   -4.6441   -0.4125    0.0000 C   0  0
   -4.6441   -1.2375    0.0000 C   0  0
   -5.3585   -1.6500    0.0000 C   0  0
   -6.0730   -1.2375    0.0000 C   0  0
   -6.0730   -0.4125    0.0000 C   0  0
   -5.3585    0.0000    0.0000 C   0  0
   -3.9296   -1.6500    0.0000 Cl  0  0
  1  2  2  0
  2  3  1  0
  3  4  2  0
  4  5  1  0
  5  6  2  0
  1  6  1  0
  7  8  2  0
  7  9  1  0
  4  7  1  0
 10 11  1  0
 11 12  1  0
 12 13  1  0
 13 14  1  0
 14 15  1  0
 15 16  1  0
 16 17  2  0
 18 19  1  0
 16 18  1  0
  9 10  1  0
 21 22  2  0
 22 23  1  0
 23 24  2  0
 24 25  1  0
 25 26  2  0
 21 26  1  0
 20 21  1  0
 27 28  2  0
 28 29  1  0
 29 30  2  0
 30 31  1  0
 31 32  2  0
 27 32  1  0
 28 33  1  0
 20 27  1  0
  1 20  1  0
M  END
> <Library>
Bioactives

> <Batch>
2012

> <PLATE>
B1002L2012M01

> <WELL>
H1

> <EOS>
EOS100532

> <CCMF_source_vial_barcode>
LV2001696493

> <concentration_mM>
10

> <volume_ul>
30

$$$$
EOS100533
  SciTegic04282016392D

 16 17  0  0  0  0            999 V2000
    2.2997   -2.3719    0.0000 C   0  0  2  0  0  0
    2.2997   -3.1969    0.0000 C   0  0  2  0  0  0
    3.0141   -3.6094    0.0000 C   0  0  1  0  0  0
    3.7286   -3.1969    0.0000 C   0  0  2  0  0  0
    3.7286   -2.3719    0.0000 C   0  0  2  0  0  0
    3.0141   -1.9594    0.0000 O   0  0
    4.5132   -3.4518    0.0000 N   0  0
    4.9982   -2.7844    0.0000 C   0  0
    4.5132   -2.1169    0.0000 S   0  0
    1.5852   -1.9594    0.0000 C   0  0
    3.0141   -4.4344    0.0000 O   0  0
    1.5852   -3.6094    0.0000 O   0  0
    5.8232   -2.7844    0.0000 N   0  0
    6.2357   -2.0699    0.0000 C   0  0
    7.0607   -2.0699    0.0000 C   0  0
    0.8707   -2.3719    0.0000 O   0  0
  2  1  1  0
  2  3  1  0
  3  4  1  0
  4  5  1  0
  5  6  1  6
  1  6  1  0
  4  7  1  6
  7  8  2  0
  8  9  1  0
  5  9  1  0
  1 10  1  1
  3 11  1  1
  2 12  1  6
  8 13  1  0
 13 14  1  0
 14 15  1  0
 10 16  1  0
M  END
> <Library>
Bioactives

> <Batch>
2012

> <PLATE>
B1002L2012M01

> <WELL>
J1

> <EOS>
EOS100533

> <CCMF_source_vial_barcode>
LV2001696521

> <concentration_mM>
10

> <volume_ul>
30

$$$$
EOS100534
  SciTegic04282016392D

 31 34  0  0  0  0            999 V2000
    4.5875   -3.4167    0.0000 S   0  0
    3.7625   -3.4167    0.0000 N   0  0
    8.3042   -4.1292    0.0000 C   0  0
    3.3500   -2.7000    0.0000 C   0  0
    2.5292   -2.6125    0.0000 N   0  0
    7.8875   -3.4167    0.0000 N   0  0
    5.4125   -3.4167    0.0000 C   0  0
    9.1292   -4.1292    0.0000 C   0  0
    3.6875   -1.9500    0.0000 S   0  0
    4.5792   -2.5917    0.0000 O   0  0
    4.5792   -4.2417    0.0000 O   0  0
    7.8875   -4.8500    0.0000 O   0  0
    2.3542   -1.8042    0.0000 C   0  0
    3.0750   -1.3917    0.0000 C   0  0
    9.5417   -4.8500    0.0000 C   0  0
    9.5417   -3.4167    0.0000 C   0  0
    5.8250   -2.7000    0.0000 C   0  0
    5.8292   -4.1292    0.0000 C   0  0
    7.0625   -3.4167    0.0000 C   0  0
    6.6500   -2.7000    0.0000 C   0  0
    6.6500   -4.1292    0.0000 C   0  0
   10.3667   -4.8417    0.0000 C   0  0
    9.1167   -5.5625    0.0000 C   0  0
   10.3667   -3.4250    0.0000 C   0  0
    9.1292   -2.7125    0.0000 C   0  0
    9.5375   -6.2750    0.0000 C   0  0
   10.7792   -2.7167    0.0000 C   0  0
    9.5417   -2.0000    0.0000 C   0  0
   10.7792   -5.5542    0.0000 C   0  0
   10.3625   -6.2792    0.0000 C   0  0
   10.3667   -2.0000    0.0000 C   0  0
  2  1  1  0
  3  6  1  0
  4  2  1  0
  5  4  2  0
  6 19  1  0
  7  1  1  0
  8  3  1  0
  9  4  1  0
 10  1  2  0
 11  1  2  0
 12  3  2  0
 13  5  1  0
 14  9  1  0
 15  8  1  0
 16  8  1  0
 17  7  2  0
 18  7  1  0
 19 21  1  0
 20 17  1  0
 21 18  2  0
 22 15  2  0
 23 15  1  0
 24 16  2  0
 25 16  1  0
 26 23  2  0
 27 24  1  0
 28 25  2  0
 29 22  1  0
 30 26  1  0
 31 28  1  0
 19 20  2  0
 14 13  2  0
 27 31  2  0
 30 29  2  0
M  END
> <Library>
Bioactives

> <Batch>
2012

> <PLATE>
B1002L2012M01

> <WELL>
L1

> <EOS>
EOS100534

> <CCMF_source_vial_barcode>
LV2001696535

> <concentration_mM>
10

> <volume_ul>
30

$$$$
EOS100535
  SciTegic04282016392D

 29 29  0  0  0  0            999 V2000
   11.0246  -24.0755    0.0000 N   0  0
   11.0246  -24.9005    0.0000 C   0  0
   10.3101  -25.3130    0.0000 C   0  0
    9.5956  -24.9005    0.0000 N   0  0
    9.5956  -24.0755    0.0000 C   0  0
   10.3101  -23.6630    0.0000 C   0  0
    8.8812  -25.3130    0.0000 C   0  0
    8.1667  -24.9005    0.0000 C   0  0
    7.4522  -25.3130    0.0000 C   0  0
    6.7378  -24.9005    0.0000 C   0  0
    6.0233  -25.3130    0.0000 C   0  0
    5.3088  -24.9005    0.0000 C   0  0
    5.3088  -24.0755    0.0000 C   0  0
    6.0233  -23.6630    0.0000 C   0  0
    6.7378  -24.0755    0.0000 C   0  0
   11.7391  -23.6630    0.0000 C   0  0
   12.4535  -24.0755    0.0000 C   0  0
   13.1680  -23.6630    0.0000 C   0  0
   13.8825  -24.0755    0.0000 C   0  0
   14.5969  -23.6630    0.0000 C   0  0
   14.5969  -22.8380    0.0000 C   0  0
   13.8825  -22.4255    0.0000 C   0  0
   13.1680  -22.8380    0.0000 C   0  0
   15.3114  -22.4255    0.0000 O   0  0
   16.0259  -22.8380    0.0000 C   0  0
   15.3114  -24.0755    0.0000 O   0  0
   16.0259  -23.6630    0.0000 C   0  0
   17.6759  -23.4568    0.0000 Cl  0  0
   17.6759  -24.2818    0.0000 Cl  0  0
  1  2  1  0
  2  3  1  0
  3  4  1  0
  4  5  1  0
  5  6  1  0
  1  6  1  0
  7  8  1  0
  8  9  1  0
 10 11  2  0
 11 12  1  0
 12 13  2  0
 13 14  1  0
 14 15  2  0
 10 15  1  0
  9 10  1  0
  4  7  1  0
 16 17  1  0
 17 18  1  0
 18 19  2  0
 19 20  1  0
 20 21  2  0
 21 22  1  0
 22 23  2  0
 18 23  1  0
 24 25  1  0
 21 24  1  0
 26 27  1  0
 20 26  1  0
  1 16  1  0
M  END
> <Library>
Bioactives

> <Batch>
2012

> <PLATE>
B1002L2012M01

> <WELL>
N1

> <EOS>
EOS100535

> <CCMF_source_vial_barcode>
LV2001696518

> <concentration_mM>
10

> <volume_ul>
30

$$$$
EOS100536
  SciTegic04282016392D

 21 21  0  0  0  0            999 V2000
    0.7987    3.1238    0.0000 C   0  0
    0.7987    2.2897    0.0000 C   0  0
    0.0843    3.5365    0.0000 C   0  0
   -1.3134    1.0250    0.0000 C   0  0
    0.1243    0.2485    0.0000 N   0  0
   -2.7112    0.1553    0.0000 N   0  0
   -0.6345    2.2719    0.0000 C   0  0
   -2.0189    0.5813    0.0000 C   0  0
   -0.5857    0.6345    0.0000 C   0  0
   -1.3134    1.8991    0.0000 C   0  0
    0.0710    4.3575    0.0000 C   0  0
    1.5087    1.8770    0.0000 C   0  0
    0.0843    1.8770    0.0000 C   0  0
   -0.6345    3.1238    0.0000 C   0  0
    1.5087    3.5365    0.0000 O   0  0
    1.0827    1.1848    0.0000 C   0  0
    2.2009    1.4377    0.0000 C   0  0
    0.0710    5.1961    0.0000 C   0  0
   -0.7588    4.3575    0.0000 C   0  0
    0.8919    4.3575    0.0000 C   0  0
    1.9169    2.6047    0.0000 C   0  0
  2  1  2  0
  3  1  1  0
  4 10  2  0
  5  9  3  0
  6  8  3  0
  7 14  1  0
  8  4  1  0
  9  4  1  0
 10  7  1  0
 11  3  1  0
 12  2  1  0
 13  2  1  0
 14  3  2  0
 15  1  1  0
 16 12  1  0
 17 12  1  0
 18 11  1  0
 19 11  1  0
 20 11  1  0
 21 12  1  0
  7 13  2  0
M  END
> <Library>
Bioactives

> <Batch>
2012

> <PLATE>
B1002L2012M01

> <WELL>
P1

> <EOS>
EOS100536

> <CCMF_source_vial_barcode>
LV2001695323

> <concentration_mM>
10

> <volume_ul>
30

$$$$
EOS100537
  SciTegic04282016392D

 14 14  0  0  0  0            999 V2000
   -0.6969    1.2395    0.0000 C   0  0
   -1.3962    0.8002    0.0000 C   0  0
   -1.3962   -0.0249    0.0000 C   0  0
   -0.6969   -0.4144    0.0000 C   0  0
    0.0019   -0.0249    0.0000 C   0  0
    0.0019    0.8002    0.0000 C   0  0
    0.7316    1.1861    0.0000 C   0  0
    1.4305    0.7542    0.0000 C   0  0
   -0.6969   -1.2395    0.0000 O   0  0
   -2.1563   -0.3380    0.0000 O   0  0
    1.4305   -0.0706    0.0000 C   0  0
    1.4305   -0.0706    0.0000 N   0  0
    2.1563    1.1401    0.0000 C   0  0
    2.1563    1.1401    0.0000 N   0  0
  1  2  2  0
  2  3  1  0
  3  4  2  0
  4  5  1  0
  5  6  2  0
  1  6  1  0
  6  7  1  0
  7  8  2  0
  4  9  1  0
  3 10  1  0
  8 11  1  0
 11 12  3  0
  8 13  1  0
 13 14  3  0
M  END
> <Library>
Bioactives

> <Batch>
2012

> <PLATE>
B1002L2012M01

> <WELL>
B3

> <EOS>
EOS100537

> <CCMF_source_vial_barcode>
LV2001696529

> <concentration_mM>
10

> <volume_ul>
30

$$$$
EOS100538
  SciTegic04282016392D

 29 33  0  0  0  0            999 V2000
   -0.9953    1.6696    0.0000 C   0  0
   -1.4082    0.9533    0.0000 C   0  0
   -0.9944    0.2426    0.0000 C   0  0
   -0.1686    1.6749    0.0000 C   0  0
    0.2410    0.9570    0.0000 C   0  0
   -0.1662    0.2416    0.0000 C   0  0
    0.3884   -0.3668    0.0000 N   0  0
    1.1383   -0.0274    0.0000 C   0  0
    1.0472    0.7907    0.0000 N   0  0
    1.8568   -0.4363    0.0000 C   0  0
   -2.2349    0.9516    0.0000 N   0  0
   -2.6454    1.6691    0.0000 C   0  0
   -3.4684    1.6693    0.0000 C   0  0
   -3.8842    0.9543    0.0000 N   0  0
   -3.4705    0.2375    0.0000 C   0  0
   -2.6412    0.2355    0.0000 C   0  0
   -4.7109    0.9558    0.0000 C   0  0
    1.8568   -1.2603    0.0000 C   0  0
    2.5712   -1.6691    0.0000 N   0  0
    2.5649   -0.0137    0.0000 C   0  0
    3.2839   -0.4272    0.0000 C   0  0
    3.2854   -1.2522    0.0000 C   0  0
    3.9966   -1.6610    0.0000 C   0  0
    4.7109   -1.2496    0.0000 C   0  0
    4.7094   -0.4246    0.0000 C   0  0
    3.9936   -0.0111    0.0000 C   0  0
    1.1416   -1.6749    0.0000 O   0  0
    2.5582    0.8129    0.0000 N   0  0
    3.9909    0.8156    0.0000 F   0  0
  1  4  1  0
  1  2  2  0
  2  3  1  0
  2 11  1  0
  3  6  2  0
  5  4  2  0
  9  5  1  0
  5  6  1  0
  6  7  1  0
  7  8  1  0
  8  9  2  0
  8 10  1  0
 10 18  1  0
 10 20  2  0
 11 16  1  0
 11 12  1  0
 12 13  1  0
 13 14  1  0
 14 15  1  0
 14 17  1  0
 15 16  1  0
 18 19  1  0
 18 27  2  0
 19 22  1  0
 21 20  1  0
 20 28  1  0
 21 22  1  0
 21 26  2  0
 22 23  2  0
 23 24  1  0
 24 25  2  0
 25 26  1  0
 26 29  1  0
M  END
> <Library>
Bioactives

> <Batch>
2012

> <PLATE>
B1002L2012M01

> <WELL>
D3

> <EOS>
EOS100538

> <CCMF_source_vial_barcode>
LV2001696451

> <concentration_mM>
10

> <volume_ul>
30

$$$$
EOS100539
  SciTegic04282016392D

 27 30  0  0  0  0            999 V2000
   -0.6040    1.2243    0.0000 C   0  0
   -0.6040    0.3993    0.0000 C   0  0
   -1.3185   -0.0132    0.0000 C   0  0
   -2.0317    0.3993    0.0000 C   0  0
   -2.7462   -0.0132    0.0000 C   0  0
   -3.4607    0.3993    0.0000 C   0  0
   -3.4607    1.2243    0.0000 C   0  0
   -2.7462    1.6368    0.0000 C   0  0
   -2.0317    1.2243    0.0000 C   0  0
   -1.3185    1.6368    0.0000 C   0  0
   -2.7462    2.4606    0.0000 C   0  0
   -3.4607    2.8731    0.0000 O   0  0
   -4.1752    1.6368    0.0000 O   0  0
    0.1105   -0.0132    0.0000 C   0  0
    0.1967   -0.8337    0.0000 C   0  0
    1.0037   -1.0052    0.0000 C   0  0
    1.4162   -0.2908    0.0000 C   0  0
    0.8641    0.3223    0.0000 S   0  0
    2.2355   -0.2045    0.0000 C   0  0
    2.7204   -0.8720    0.0000 N   0  0
    2.5710    0.5492    0.0000 O   0  0
    2.3848   -1.6256    0.0000 C   0  0
    2.8698   -2.2919    0.0000 C   0  0
    3.6902   -2.2056    0.0000 N   0  0
    4.0258   -1.4532    0.0000 C   0  0
    3.5409   -0.7857    0.0000 C   0  0
    4.1752   -2.8731    0.0000 C   0  0
  1  2  2  0
  2  3  1  0
  3  4  2  0
  4  5  1  0
  5  6  2  0
  6  7  1  0
  7  8  2  0
  8  9  1  0
  4  9  1  0
  9 10  2  0
  1 10  1  0
 11 12  2  0
  8 11  1  0
  7 13  1  0
  2 14  1  0
 14 15  2  0
 15 16  1  0
 16 17  2  0
 17 18  1  0
 18 14  1  0
 17 19  1  0
 19 20  1  0
 19 21  2  0
 20 22  1  0
 22 23  1  0
 23 24  1  0
 24 25  1  0
 25 26  1  0
 26 20  1  0
 24 27  1  0
M  END
> <Library>
Bioactives

> <Batch>
2012

> <PLATE>
B1002L2012M01

> <WELL>
F3

> <EOS>
EOS100539

> <CCMF_source_vial_barcode>
LV2001696526

> <concentration_mM>
10

> <volume_ul>
30

$$$$
EOS100540
  SciTegic04282016392D

 22 23  0  0  0  0            999 V2000
    5.0284   -2.4166    0.0000 C   0  0
    5.4409   -1.7021    0.0000 C   0  0
    6.2659   -1.7021    0.0000 C   0  0
    6.6784   -2.4166    0.0000 C   0  0
    6.2659   -3.1310    0.0000 C   0  0
    5.4409   -3.1310    0.0000 C   0  0
    7.5034   -2.4166    0.0000 O   0  0
    7.9159   -3.1310    0.0000 C   0  0
    5.0284   -0.9876    0.0000 O   0  0
    5.4409   -0.2731    0.0000 C   0  0
    4.2034   -2.4166    0.0000 C   0  0
    3.7909   -3.1310    0.0000 C   0  0
    2.9659   -3.1310    0.0000 C   0  0
    2.5534   -3.8455    0.0000 C   0  0
    1.7284   -3.8455    0.0000 C   0  0
    1.3159   -3.1310    0.0000 C   0  0
    1.7284   -2.4166    0.0000 C   0  0
    2.5534   -2.4166    0.0000 C   0  0
    1.3159   -1.7021    0.0000 O   0  0
    0.4909   -1.7021    0.0000 C   0  0
    1.3159   -4.5600    0.0000 O   0  0
    0.4909   -4.5600    0.0000 C   0  0
  1  2  2  0
  2  3  1  0
  3  4  2  0
  4  5  1  0
  5  6  2  0
  1  6  1  0
  7  8  1  0
  4  7  1  0
  9 10  1  0
  2  9  1  0
 11 12  2  0
 13 14  2  0
 14 15  1  0
 15 16  2  0
 16 17  1  0
 17 18  2  0
 13 18  1  0
 19 20  1  0
 17 19  1  0
 21 22  1  0
 15 21  1  0
 12 13  1  0
  1 11  1  0
M  END
> <Library>
Bioactives

> <Batch>
2012

> <PLATE>
B1002L2012M01

> <WELL>
H3

> <EOS>
EOS100540

> <CCMF_source_vial_barcode>
LV2001696502

> <concentration_mM>
10

> <volume_ul>
30

$$$$
EOS100541
  SciTegic04282016392D

 33 36  0  0  1  0            999 V2000
    4.5181    2.3945    0.0000 F   0  0
    4.5181    1.5695    0.0000 C   0  0
    5.2326    1.1570    0.0000 F   0  0
    3.8037    1.1570    0.0000 C   0  0
    3.8037    0.3320    0.0000 N   0  0
    4.5470   -0.0260    0.0000 C   0  0
    5.1517    0.5352    0.0000 C   0  0
    5.9401    0.2920    0.0000 C   0  0
    6.1237   -0.5123    0.0000 C   0  0
    6.9120   -0.7555    0.0000 F   0  0
    5.5189   -1.0735    0.0000 C   0  0
    4.7305   -0.8303    0.0000 C   0  0
    4.2162   -1.4753    0.0000 N   0  0
    3.3912   -1.4753    0.0000 C   0  0
    3.0332   -2.2186    0.0000 N   0  0
    3.4980   -2.9002    0.0000 C   0  0  1  0  0  0
    4.3226   -2.9249    0.0000 C   0  0
    4.5539   -3.7168    0.0000 C   0  0
    3.8723   -4.1816    0.0000 N   0  0
    3.8476   -5.0062    0.0000 C   0  0
    4.5494   -5.4399    0.0000 N   0  0
    4.5247   -6.2645    0.0000 C   0  0
    5.2265   -6.6982    0.0000 C   0  0
    3.7982   -6.6555    0.0000 C   0  0
    3.1211   -5.3971    0.0000 O   0  0
    3.2197   -3.6769    0.0000 C   0  0
    3.0604   -0.0260    0.0000 C   0  0
    2.8768   -0.8303    0.0000 C   0  0
    2.0884   -1.0735    0.0000 C   0  0
    1.4837   -0.5123    0.0000 C   0  0
    0.6953   -0.7555    0.0000 Cl  0  0
    1.6673    0.2920    0.0000 C   0  0
    2.4556    0.5352    0.0000 C   0  0
  1  2  1  0
  2  3  1  0
  2  4  1  0
  4  5  1  0
  5  6  1  0
  6  7  2  0
  7  8  1  0
  8  9  2  0
  9 10  1  0
  9 11  1  0
  6 12  1  0
 11 12  2  0
 12 13  1  0
 13 14  2  0
 14 15  1  0
 16 15  1  1
 16 17  1  0
 17 18  1  0
 18 19  1  0
 19 20  1  0
 20 21  1  0
 21 22  1  0
 22 23  1  0
 22 24  1  0
 20 25  2  0
 19 26  1  0
 16 26  1  0
  5 27  1  0
 27 28  2  0
 14 28  1  0
 28 29  1  0
 29 30  2  0
 30 31  1  0
 30 32  1  0
 32 33  2  0
 27 33  1  0
M  END
> <Library>
Bioactives

> <Batch>
2012

> <PLATE>
B1002L2012M01

> <WELL>
J3

> <EOS>
EOS100541

> <CCMF_source_vial_barcode>
LV2001695312

> <concentration_mM>
10

> <volume_ul>
30

$$$$
EOS100542
  SciTegic04282016392D

 42 47  0  0  0  0            999 V2000
   -1.7862   -2.8875    0.0000 C   0  0
   -1.7862   -3.7125    0.0000 C   0  0
   -2.5006   -4.1250    0.0000 C   0  0
   -3.2151   -3.7125    0.0000 C   0  0
   -3.2151   -2.8875    0.0000 C   0  0
   -2.5006   -2.4750    0.0000 C   0  0
   -1.0717   -2.4750    0.0000 S   0  0
   -1.4842   -1.7605    0.0000 O   0  0
   -0.6592   -3.1895    0.0000 O   0  0
   -0.3572   -2.0625    0.0000 N   0  0
   -0.3572   -1.2375    0.0000 C   0  0
   -1.0717   -0.8250    0.0000 C   0  0
   -1.0717    0.0000    0.0000 C   0  0
   -0.3572    0.4125    0.0000 C   0  0
    0.3572    0.0000    0.0000 C   0  0
    1.0717    0.4125    0.0000 C   0  0
    1.7862    0.0000    0.0000 C   0  0
    1.7862   -0.8250    0.0000 C   0  0
    1.0717   -1.2375    0.0000 C   0  0
    0.3572   -0.8250    0.0000 C   0  0
    1.0717    1.2375    0.0000 O   0  0
    1.7862    1.6500    0.0000 C   0  0
    1.7862    2.4750    0.0000 C   0  0
    2.5006    2.8875    0.0000 C   0  0
    3.2151    2.4750    0.0000 C   0  0
    3.2151    1.6500    0.0000 C   0  0
    2.5006    1.2375    0.0000 N   0  0
   -0.3572    2.8875    0.0000 C   0  0
    0.3572    2.4750    0.0000 N   0  0
    1.0717    2.8875    0.0000 C   0  0
    1.0717    3.7125    0.0000 C   0  0
    0.3572    4.1250    0.0000 C   0  0
   -0.3572    3.7125    0.0000 N   0  0
   -1.0717    2.4750    0.0000 N   0  0
   -2.5006    4.1250    0.0000 N   0  0
   -1.7862    3.7125    0.0000 C   0  0
   -1.7862    2.8875    0.0000 C   0  0  2  0  0  0
   -2.5006    2.4750    0.0000 C   0  0
   -3.2151    2.8875    0.0000 C   0  0
   -3.2151    3.7125    0.0000 C   0  0
    2.5006    0.4125    0.0000 C   0  0
   -1.0717   -4.1250    0.0000 Cl  0  0
  1  2  2  0
  2  3  1  0
  3  4  2  0
  4  5  1  0
  5  6  2  0
  1  6  1  0
  7  8  2  0
  7  9  2  0
  7 10  1  0
  1  7  1  0
 11 12  1  0
 12 13  2  0
 13 14  1  0
 14 15  2  0
 15 16  1  0
 16 17  2  0
 17 18  1  0
 18 19  2  0
 19 20  1  0
 11 20  2  0
 15 20  1  0
 22 23  2  0
 23 24  1  0
 24 25  2  0
 25 26  1  0
 26 27  2  0
 22 27  1  0
 28 29  2  0
 29 30  1  0
 30 31  2  0
 31 32  1  0
 32 33  2  0
 28 33  1  0
 35 36  1  0
 37 36  1  0
 37 38  1  0
 38 39  1  0
 39 40  1  0
 35 40  1  0
 37 34  1  1
 28 34  1  0
 23 30  1  0
 21 22  1  0
 16 21  1  0
 17 41  1  0
 10 11  1  0
  2 42  1  0
M  END
> <Library>
Bioactives

> <Batch>
2012

> <PLATE>
B1002L2012M01

> <WELL>
L3

> <EOS>
EOS100542

> <CCMF_source_vial_barcode>
LV2001696528

> <concentration_mM>
10

> <volume_ul>
30

$$$$
EOS100543
  SciTegic04282016392D

 27 28  0  0  0  0            999 V2000
    1.9027    3.5979    0.0000 C   0  0
    1.1058    3.3844    0.0000 C   0  0
    0.8922    2.5876    0.0000 C   0  0
    1.4756    2.0042    0.0000 C   0  0
    2.2725    2.2177    0.0000 C   0  0
    2.4860    3.0146    0.0000 C   0  0
    0.5224    3.9678    0.0000 F   0  0
    2.8559    1.6343    0.0000 C   0  0
    2.7268    0.8195    0.0000 N   0  0
    3.4619    0.4450    0.0000 C   0  0
    4.0453    1.0283    0.0000 N   0  0
    3.6707    1.7634    0.0000 C   0  0
    4.0453    2.4985    0.0000 C   0  0
    4.8601    0.8993    0.0000 C   0  0
    5.1557    0.1291    0.0000 C   0  0
    5.9706    0.0000    0.0000 C   0  0
    6.4898    0.6411    0.0000 C   0  0
    6.1941    1.4113    0.0000 C   0  0
    5.3793    1.5404    0.0000 C   0  0
    4.8691    2.5417    0.0000 N   0  0
    5.2436    3.2767    0.0000 C   0  0
    4.7943    3.9687    0.0000 N   0  0
    3.9704    3.9255    0.0000 C   0  0
    3.5959    3.1904    0.0000 C   0  0
    6.0675    3.3199    0.0000 N   0  0
    5.3471    5.1242    0.0000 Cl  0  0
    0.0000    3.4783    0.0000 Cl  0  0
  1  2  2  0
  2  3  1  0
  3  4  2  0
  4  5  1  0
  5  6  2  0
  6  1  1  0
  2  7  1  0
  5  8  1  0
  8  9  1  0
  9 10  2  0
 10 11  1  0
 11 12  1  0
 12  8  2  0
 12 13  1  0
 11 14  1  0
 14 15  1  0
 15 16  1  0
 16 17  1  0
 17 18  1  0
 18 19  1  0
 19 14  1  0
 13 20  2  0
 20 21  1  0
 21 22  2  0
 22 23  1  0
 23 24  2  0
 24 13  1  0
 21 25  1  0
M  END
> <Library>
Bioactives

> <Batch>
2012

> <PLATE>
B1002L2012M01

> <WELL>
N3

> <EOS>
EOS100543

> <CCMF_source_vial_barcode>
LV2001696539

> <concentration_mM>
10

> <volume_ul>
30

$$$$
EOS100544
  SciTegic04282016392D

 28 30  0  0  0  0            999 V2000
    0.0000    0.0000    0.0000 C   0  0
    0.7145   -0.4125    0.0000 N   0  0
    0.7145   -1.2375    0.0000 C   0  0
    1.4289   -1.6500    0.0000 N   0  0
    1.4289   -2.4750    0.0000 C   0  0
    2.1434   -2.8875    0.0000 N   0  0
    2.8579   -2.4750    0.0000 C   0  0
    3.5724   -2.8875    0.0000 C   0  0
    4.2868   -2.4750    0.0000 C   0  0
    4.2868   -1.6500    0.0000 Cl  0  0
    5.0013   -2.8875    0.0000 C   0  0
    5.0013   -3.7125    0.0000 C   0  0
    5.7158   -4.1250    0.0000 N   0  0
    5.7158   -4.9500    0.0000 S   0  0
    5.7158   -5.7750    0.0000 C   0  0
    6.5408   -4.9500    0.0000 O   0  0
    4.8908   -4.9500    0.0000 O   0  0
    4.2868   -4.1250    0.0000 C   0  0
    3.5724   -3.7125    0.0000 C   0  0
    0.7145   -2.8875    0.0000 C   0  0
    0.0000   -2.4750    0.0000 C   0  0
   -0.7145   -2.8875    0.0000 C   0  0
   -0.7145   -3.7125    0.0000 N   0  0
   -1.4289   -4.1250    0.0000 C   0  0
   -2.1434   -3.7125    0.0000 C   0  0
   -2.1434   -2.8875    0.0000 C   0  0
   -1.4289   -2.4750    0.0000 C   0  0
    0.0000   -1.6500    0.0000 N   0  0
  1  2  1  0
  2  3  1  0
  3  4  2  0
  4  5  1  0
  5  6  1  0
  6  7  1  0
  7  8  1  0
  8  9  2  0
  9 10  1  0
  9 11  1  0
 11 12  2  0
 12 13  1  0
 13 14  1  0
 14 15  1  0
 14 16  2  0
 14 17  2  0
 12 18  1  0
 18 19  2  0
  8 19  1  0
  5 20  2  0
 20 21  1  0
 21 22  1  0
 22 23  2  0
 23 24  1  0
 24 25  2  0
 25 26  1  0
 26 27  2  0
 22 27  1  0
 21 28  2  0
  3 28  1  0
M  END
> <Library>
Bioactives

> <Batch>
2012

> <PLATE>
B1002L2012M01

> <WELL>
P3

> <EOS>
EOS100544

> <CCMF_source_vial_barcode>
LV2001696511

> <concentration_mM>
10

> <volume_ul>
30

$$$$
EOS100545
  SciTegic04282016392D

 24 27  0  0  0  0            999 V2000
    0.7603   -0.1547    0.0000 C   0  0
   -0.0382    0.0592    0.0000 C   0  0
   -0.4926   -0.6321    0.0000 N   0  0
   -0.0382   -1.2775    0.0000 N   0  0
    0.7603   -0.9875    0.0000 C   0  0
    1.4781   -1.4037    0.0000 N   0  0
    2.1960   -0.9875    0.0000 C   0  0
    2.1960   -0.1547    0.0000 N   0  0
    1.4781    0.2576    0.0000 C   0  0
    1.4781    1.0826    0.0000 N   0  0
   -0.4505   -1.9918    0.0000 C   0  0
    0.1337   -2.5760    0.0000 C   0  0
   -1.0348   -2.5760    0.0000 C   0  0
   -1.1648   -1.5794    0.0000 C   0  0
    0.6609    1.3386    0.0000 C   0  0
   -0.7638    1.3386    0.0000 C   0  0
   -0.7638    2.1633    0.0000 C   0  0
   -1.4778    2.5760    0.0000 C   0  0
   -2.1960    2.1633    0.0000 C   0  0
   -2.1960    1.3386    0.0000 C   0  0
   -1.4778    0.9260    0.0000 C   0  0
   -0.0495    0.9260    0.0000 C   0  0
    0.6609    2.1633    0.0000 C   0  0
   -0.0495    2.5760    0.0000 C   0  0
  1  2  1  0
  2  3  2  0
  3  4  1  0
  4  5  1  0
  1  5  1  0
  5  6  2  0
  6  7  1  0
  7  8  2  0
  8  9  1  0
  1  9  2  0
  9 10  1  0
  4 11  1  0
 11 12  1  0
 11 13  1  0
 11 14  1  0
 16 17  1  0
 17 18  1  0
 18 19  2  0
 19 20  1  0
 20 21  2  0
 16 21  1  0
 16 22  2  0
 15 22  1  0
 15 23  2  0
 23 24  1  0
 17 24  2  0
  2 22  1  0
M  END
> <Library>
Bioactives

> <Batch>
2012

> <PLATE>
B1002L2012M01

> <WELL>
B5

> <EOS>
EOS100545

> <CCMF_source_vial_barcode>
LV2001695324

> <concentration_mM>
10

> <volume_ul>
30

$$$$
EOS100546
  SciTegic04282016392D

 32 36  0  0  0  0            999 V2000
   -2.1434    2.0625    0.0000 O   0  0
   -2.1434    1.2375    0.0000 C   0  0
   -1.4289    0.8250    0.0000 C   0  0
   -1.4289    0.0000    0.0000 C   0  0
   -0.7145   -0.4125    0.0000 C   0  0
   -0.7145   -1.2375    0.0000 C   0  0
    0.0000   -1.6500    0.0000 C   0  0
    0.7145   -1.2375    0.0000 C   0  0
    1.4289   -1.6500    0.0000 C   0  0
    2.1434   -1.2375    0.0000 N   0  0
    2.8579   -1.6500    0.0000 C   0  0
    3.5724   -1.2375    0.0000 C   0  0
    3.5724   -0.4125    0.0000 C   0  0
    4.2868   -1.6500    0.0000 C   0  0
    4.2868   -2.4750    0.0000 C   0  0
    4.8999   -3.0270    0.0000 N   0  0
    5.7069   -2.8555    0.0000 C   0  0
    4.5644   -3.7807    0.0000 C   0  0
    3.7439   -3.6945    0.0000 N   0  0
    3.1918   -4.3076    0.0000 C   0  0
    4.9769   -4.4952    0.0000 O   0  0
    3.5724   -2.8875    0.0000 C   0  0
    2.8579   -2.4750    0.0000 C   0  0
    1.4289   -2.4750    0.0000 O   0  0
    0.7145   -0.4125    0.0000 C   0  0
    0.0000    0.0000    0.0000 C   0  0
    0.0000    0.8250    0.0000 C   0  0
    0.7145    1.2375    0.0000 C   0  0
    1.4289    0.8250    0.0000 C   0  0
    1.4289    0.0000    0.0000 C   0  0
    2.1434   -0.4125    0.0000 C   0  0
    2.8579    0.0000    0.0000 O   0  0
  1  2  1  0
  2  3  1  0
  3  4  1  0
  4  5  1  0
  5  6  1  0
  6  7  2  0
  7  8  1  0
  8  9  1  0
  9 10  1  0
 10 11  1  0
 11 12  2  0
 12 13  1  0
 12 14  1  0
 14 15  2  0
 15 16  1  0
 16 17  1  0
 16 18  1  0
 18 19  1  0
 19 20  1  0
 18 21  2  0
 15 22  1  0
 19 22  1  0
 22 23  2  0
 11 23  1  0
  9 24  2  0
  8 25  2  0
 25 26  1  0
  5 26  2  0
 26 27  1  0
 27 28  2  0
 28 29  1  0
 29 30  2  0
 25 30  1  0
 30 31  1  0
 10 31  1  0
 31 32  2  0
M  END
> <Library>
Bioactives

> <Batch>
2012

> <PLATE>
B1002L2012M01

> <WELL>
D5

> <EOS>
EOS100546

> <CCMF_source_vial_barcode>
LV2001696445

> <concentration_mM>
10

> <volume_ul>
30

$$$$
EOS100547
  SciTegic04282016392D

 27 29  0  0  0  0            999 V2000
    4.3301   -3.6284    0.0000 N   0  0
    3.6150   -3.2172    0.0000 C   0  0
    3.6150   -2.3911    0.0000 C   0  0
    4.3302   -1.9799    0.0000 C   0  0
    5.0454   -2.3911    0.0000 N   0  0
    5.0454   -3.2172    0.0000 C   0  0
    2.8998   -3.6284    0.0000 C   0  0
    2.1846   -3.2172    0.0000 C   0  0
    2.1846   -2.3911    0.0000 C   0  0
    2.8998   -1.9799    0.0000 C   0  0
    5.7606   -3.6284    0.0000 O   0  0
    4.3301   -4.4534    0.0000 C   0  0
    3.6156   -4.8659    0.0000 C   0  0
    5.0446   -4.8660    0.0000 C   0  0
    4.3303   -1.1548    0.0000 C   0  0
    5.0467   -0.7460    0.0000 C   0  0
    5.0471    0.0783    0.0000 C   0  0
    4.3320    0.4917    0.0000 C   0  0
    3.6151    0.0747    0.0000 C   0  0
    3.6183   -0.7482    0.0000 C   0  0
    4.3309    1.3176    0.0000 C   0  0
    5.0457    1.7315    0.0000 C   0  0
    3.6152    1.7296    0.0000 C   0  0
    1.4694   -1.9773    0.0000 O   0  0
    0.7466   -2.3847    0.0000 C   0  0
    0.7496   -3.2075    0.0000 C   0  0
    0.7435   -4.0356    0.0000 C   0  0
 12 13  1  0
  1  6  1  0
 12 14  1  0
  2  3  1  0
  4 15  1  0
  2  7  2  0
 15 16  2  0
  3  4  1  0
 16 17  1  0
  3 10  2  0
 17 18  2  0
  4  5  2  0
 18 19  1  0
  5  6  1  0
 19 20  2  0
 20 15  1  0
  6 11  2  0
 18 21  1  0
  7  8  1  0
 21 22  1  0
  8  9  2  0
 21 23  1  0
  9 10  1  0
  9 24  1  0
 24 25  1  0
  1 12  1  0
 25 26  1  0
  1  2  1  0
 26 27  3  0
M  END
> <Library>
Bioactives

> <Batch>
2012

> <PLATE>
B1002L2012M01

> <WELL>
F5

> <EOS>
EOS100547

> <CCMF_source_vial_barcode>
LV2001695341

> <concentration_mM>
10

> <volume_ul>
30

$$$$
EOS100548
  SciTegic04282016392D

 33 38  0  0  0  0            999 V2000
    0.0000    2.1307    0.0000 C   0  0
    0.0000    1.3057    0.0000 C   0  0
    0.7145    0.8932    0.0000 C   0  0
    1.4290    1.3057    0.0000 C   0  0
    1.4290    2.1307    0.0000 C   0  0
    0.7145    2.5432    0.0000 C   0  0
    0.8860    0.0862    0.0000 N   0  0
    1.7065    0.0000    0.0000 C   0  0
    2.0421    0.7537    0.0000 C   0  0
    2.1434    2.5432    0.0000 C   0  0
    2.8579    2.1307    0.0000 C   0  0
    3.5724    2.5432    0.0000 C   0  0
    3.5724    3.3682    0.0000 C   0  0
    2.8579    3.7807    0.0000 C   0  0
    2.1434    3.3682    0.0000 C   0  0
    4.3570    2.2883    0.0000 N   0  0
    4.8419    2.9557    0.0000 N   0  0
    4.3570    3.6232    0.0000 C   0  0
    2.8579    4.6057    0.0000 C   0  0
    3.5253    5.0906    0.0000 N   0  0
    3.2704    5.8752    0.0000 C   0  0
    2.4454    5.8752    0.0000 C   0  0
    2.1904    5.0906    0.0000 O   0  0
    1.9604    6.5427    0.0000 C   0  0
    2.2960    7.2964    0.0000 N   0  0
    3.1165    7.3826    0.0000 C   0  0
    3.4520    8.1363    0.0000 C   0  0
    2.9671    8.8037    0.0000 N   0  0
    2.1467    8.7175    0.0000 C   0  0
    1.8111    7.9638    0.0000 C   0  0
    3.3027    9.5574    0.0000 C   0  0
    2.8178   10.2248    0.0000 C   0  0
    4.1232    9.6436    0.0000 C   0  0
  1  2  1  0
  2  3  2  0
  3  4  1  0
  4  5  2  0
  5  6  1  0
  6  1  2  0
  3  7  1  0
  7  8  1  0
  8  9  2  0
  9  4  1  0
  5 10  1  0
 10 11  1  0
 11 12  2  0
 12 13  1  0
 13 14  2  0
 14 15  1  0
 15 10  2  0
 12 16  1  0
 16 17  1  0
 17 18  2  0
 18 13  1  0
 14 19  1  0
 19 20  2  0
 20 21  1  0
 21 22  2  0
 22 23  1  0
 23 19  1  0
 22 24  1  0
 24 25  1  0
 25 26  1  0
 26 27  1  0
 27 28  1  0
 28 29  1  0
 29 30  1  0
 30 25  1  0
 28 31  1  0
 31 32  1  0
 31 33  1  0
M  END
> <Library>
Bioactives

> <Batch>
2012

> <PLATE>
B1002L2012M01

> <WELL>
H5

> <EOS>
EOS100548

> <CCMF_source_vial_barcode>
LV2001696523

> <concentration_mM>
10

> <volume_ul>
30

$$$$
EOS100549
  SciTegic04282016392D

 42 48  0  0  1  0            999 V2000
    7.2850    3.3908    0.0000 N   0  0
    7.9995    3.8033    0.0000 C   0  0
    7.2850    2.5691    0.0000 C   0  0  1  0  0  0
    6.5737    3.8033    0.0000 C   0  0  2  0  0  0
    8.7531    3.4687    0.0000 N   0  0
    8.0872    4.6250    0.0000 S   0  0
    6.5737    2.1534    0.0000 C   0  0
    6.6094    2.6048    0.0000 C   0  0
    5.8592    3.3908    0.0000 C   0  0
    6.2684    3.1960    0.0000 C   0  0
    9.3052    4.0826    0.0000 C   0  0
    8.8928    4.7939    0.0000 C   0  0
    5.8592    2.5691    0.0000 C   0  0  1  0  0  0
   10.1302    4.0826    0.0000 C   0  0
    9.3052    5.5084    0.0000 C   0  0
    5.1447    2.1534    0.0000 O   0  0
   10.5426    4.7939    0.0000 C   0  0
   10.5426    3.3680    0.0000 F   0  0
   10.1302    5.5084    0.0000 C   0  0
    4.4301    2.5691    0.0000 C   0  0
   10.5426    6.2230    0.0000 C   0  0
    3.7156    2.1534    0.0000 C   0  0
   10.1302    6.9375    0.0000 O   0  0
   11.3677    6.2230    0.0000 O   0  0
    2.9621    2.4911    0.0000 C   0  0
    3.6312    1.3349    0.0000 C   0  0
    2.7932    3.2966    0.0000 C   0  0
    2.4099    1.8773    0.0000 N   0  0
    4.2450    0.7828    0.0000 C   0  0
    2.8225    1.1627    0.0000 O   0  0
    2.0072    3.5500    0.0000 C   0  0
    3.4038    3.8487    0.0000 C   0  0
    5.0505    0.6106    0.0000 C   0  0
    4.4984    0.0000    0.0000 C   0  0
    1.3934    3.0011    0.0000 O   0  0
    1.8351    4.3587    0.0000 C   0  0
    3.2349    4.6543    0.0000 C   0  0
    0.6106    3.2544    0.0000 C   0  0
    2.4489    4.9108    0.0000 C   0  0
    0.0000    2.7023    0.0000 F   0  0
    0.4385    4.0599    0.0000 F   0  0
    0.0292    3.8390    0.0000 F   0  0
  1  2  1  0
  3  1  1  1
  4  1  1  1
  2  5  2  0
  2  6  1  0
  3  7  1  0
  3  8  1  0
  4  9  1  0
  4 10  1  0
  5 11  1  0
  6 12  1  0
 13  7  1  0
  8 10  1  0
 13  9  1  0
 11 12  1  0
 11 14  2  0
 12 15  2  0
 13 16  1  6
 14 17  1  0
 14 18  1  0
 15 19  1  0
 16 20  1  0
 17 19  2  0
 19 21  1  0
 20 22  1  0
 21 23  1  0
 21 24  2  0
 22 25  1  0
 22 26  2  0
 25 27  1  0
 25 28  2  0
 26 29  1  0
 26 30  1  0
 27 31  2  0
 27 32  1  0
 28 30  1  0
 29 33  1  0
 29 34  1  0
 31 35  1  0
 31 36  1  0
 32 37  2  0
 33 34  1  0
 35 38  1  0
 36 39  2  0
 37 39  1  0
 38 40  1  0
 38 41  1  0
 38 42  1  0
M  END
> <Library>
Bioactives

> <Batch>
2012

> <PLATE>
B1002L2012M01

> <WELL>
J5

> <EOS>
EOS100549

> <CCMF_source_vial_barcode>
LV2001696527

> <concentration_mM>
10

> <volume_ul>
30

$$$$
EOS100550
  SciTegic04282016392D

 21 22  0  0  0  0            999 V2000
    1.4290    2.0625    0.0000 C   0  0
    1.4290    1.2375    0.0000 C   0  0
    2.1435    0.8250    0.0000 C   0  0
    2.8579    1.2375    0.0000 C   0  0
    2.8579    2.0625    0.0000 C   0  0
    2.1435    2.4751    0.0000 C   0  0
    3.5724    2.4751    0.0000 C   0  0
    0.7145    0.8250    0.0000 N   0  0
    0.0000    1.2375    0.0000 C   0  0
    0.7145    0.0000    0.0000 C   0  0
    4.2869    2.0625    0.0000 C   0  0
    5.0014    2.4751    0.0000 C   0  0
    5.0014    3.3001    0.0000 C   0  0
    4.2869    3.7126    0.0000 C   0  0
    3.5724    3.3001    0.0000 C   0  0
    5.7159    2.0625    0.0000 N   0  0
    6.4304    2.4751    0.0000 C   0  0
    7.1449    2.0625    0.0000 N   0  0
    6.4304    3.3001    0.0000 O   0  0
    7.8594    2.4751    0.0000 C   0  0
    7.1449    1.2375    0.0000 C   0  0
  1  2  2  0
  2  3  1  0
  3  4  2  0
  4  5  1  0
  5  6  2  0
  6  1  1  0
  5  7  1  0
  2  8  1  0
  8  9  1  0
  8 10  1  0
  7 11  2  0
 11 12  1  0
 12 13  2  0
 13 14  1  0
 14 15  2  0
 15  7  1  0
 12 16  1  0
 16 17  1  0
 17 18  1  0
 17 19  2  0
 18 20  1  0
 18 21  1  0
M  END
> <Library>
Bioactives

> <Batch>
2012

> <PLATE>
B1002L2012M01

> <WELL>
L5

> <EOS>
EOS100550

> <CCMF_source_vial_barcode>
LV2001695325

> <concentration_mM>
10

> <volume_ul>
30

$$$$
EOS100551
  SciTegic04282016392D

 24 25  0  0  0  0            999 V2000
   -2.6664   -1.0865    0.0000 N   0  0
   -1.9520   -0.6740    0.0000 C   0  0
   -1.2375   -1.0865    0.0000 N   0  0
   -0.5230   -0.6740    0.0000 C   0  0
    0.1914   -1.0865    0.0000 N   0  0
    0.9059   -0.6740    0.0000 C   0  0
    1.6204   -1.0865    0.0000 C   0  0
    1.6204   -1.9115    0.0000 C   0  0
    2.0329   -2.6260    0.0000 C   0  0
    2.4454   -1.9115    0.0000 N   0  0
    0.9059   -2.3240    0.0000 C   0  0
    0.1914   -1.9115    0.0000 C   0  0
   -0.5230    0.1510    0.0000 C   0  0
   -1.2375    0.5635    0.0000 N   0  0
   -1.9520    0.1510    0.0000 C   0  0
   -2.6664    0.5635    0.0000 C   0  0
   -3.3809    0.1510    0.0000 C   0  0
   -4.0954    0.5635    0.0000 C   0  0
   -4.0954    1.3885    0.0000 C   0  0
   -3.3809    1.8010    0.0000 C   0  0
   -3.3809    2.6260    0.0000 Cl  0  0
   -2.6664    1.3885    0.0000 C   0  0
   -1.9520    1.8010    0.0000 Cl  0  0
    4.0954    0.0000    0.0000 Cl  0  0
  1  2  1  0
  2  3  2  0
  3  4  1  0
  4  5  1  0
  5  6  1  0
  6  7  1  0
  7  8  1  0
  8  9  1  0
  8 10  1  0
  8 11  1  0
 11 12  1  0
  5 12  1  0
  4 13  2  0
 13 14  1  0
 14 15  2  0
  2 15  1  0
 15 16  1  0
 16 17  2  0
 17 18  1  0
 18 19  2  0
 19 20  1  0
 20 21  1  0
 20 22  2  0
 16 22  1  0
 22 23  1  0
M  END
> <Library>
Bioactives

> <Batch>
2012

> <PLATE>
B1002L2012M01

> <WELL>
N5

> <EOS>
EOS100551

> <CCMF_source_vial_barcode>
LV2001696541

> <concentration_mM>
10

> <volume_ul>
30

$$$$
EOS100552
  SciTegic04282016392D

 46 51  0  0  0  0            999 V2000
   -0.4125   -0.7145    0.0000 O   0  0
    0.0000    0.0000    0.0000 S   0  0
    0.7145   -0.4125    0.0000 C   0  0
    1.4289    0.0000    0.0000 C   0  0
    1.4289    0.8250    0.0000 N   0  0
    2.1434    1.2375    0.0000 C   0  0
    2.1434    2.0625    0.0000 C   0  0
    2.8579    2.4750    0.0000 C   0  0
    2.8579    3.3000    0.0000 O   0  0
    3.5724    3.7125    0.0000 C   0  0
    3.5724    4.5375    0.0000 C   0  0
    4.2868    4.9500    0.0000 C   0  0
    4.2868    5.7750    0.0000 F   0  0
    5.0013    4.5375    0.0000 C   0  0
    5.0013    3.7125    0.0000 C   0  0
    5.7158    3.3000    0.0000 F   0  0
    4.2868    3.3000    0.0000 C   0  0
    3.5724    2.0625    0.0000 C   0  0
    3.5724    1.2375    0.0000 C   0  0
    4.2868    0.8250    0.0000 C   0  0
    4.2868    0.0000    0.0000 O   0  0
    5.0013    1.2375    0.0000 O   0  0
    2.8579    0.8250    0.0000 C   0  0
    2.1434   -0.4125    0.0000 C   0  0
    2.8579    0.0000    0.0000 C   0  0
    3.5724   -0.4125    0.0000 C   0  0
    3.5724   -1.2375    0.0000 C   0  0
    4.2868   -1.6500    0.0000 C   0  0
    5.0013   -1.2375    0.0000 C   0  0
    5.7158   -1.6500    0.0000 N   0  0
    5.7158   -2.4750    0.0000 C   0  0
    6.4302   -2.8875    0.0000 O   0  0
    7.1447   -2.4750    0.0000 C   0  0
    5.0013   -2.8875    0.0000 N   0  0
    4.2868   -2.4750    0.0000 C   0  0
    3.5724   -2.8875    0.0000 O   0  0
    3.5724   -3.7125    0.0000 C   0  0
    2.8579   -1.6500    0.0000 C   0  0
    2.1434   -1.2375    0.0000 C   0  0
    1.4289   -1.6500    0.0000 N   0  0
    0.7145   -1.2375    0.0000 C   0  0
   -0.7145    0.4125    0.0000 N   0  0
   -1.4289    0.0000    0.0000 C   0  0
   -1.8414   -0.7145    0.0000 C   0  0
   -2.2539    0.0000    0.0000 C   0  0
    0.4125    0.7145    0.0000 O   0  0
  1  2  2  0
  2  3  1  0
  3  4  1  0
  4  5  1  0
  5  6  1  0
  6  7  2  0
  7  8  1  0
  8  9  1  0
  9 10  1  0
 10 11  2  0
 11 12  1  0
 12 13  1  0
 12 14  2  0
 14 15  1  0
 15 16  1  0
 15 17  2  0
 10 17  1  0
  8 18  2  0
 18 19  1  0
 19 20  1  0
 20 21  1  0
 20 22  2  0
 19 23  2  0
  6 23  1  0
  4 24  2  0
 24 25  1  0
 25 26  2  0
 26 27  1  0
 27 28  1  0
 28 29  2  0
 29 30  1  0
 30 31  2  0
 31 32  1  0
 32 33  1  0
 31 34  1  0
 34 35  2  0
 28 35  1  0
 35 36  1  0
 36 37  1  0
 27 38  2  0
 38 39  1  0
 24 39  1  0
 39 40  2  0
 40 41  1  0
  3 41  2  0
  2 42  1  0
 42 43  1  0
 43 44  1  0
 44 45  1  0
 43 45  1  0
  2 46  2  0
M  END
> <Library>
Bioactives

> <Batch>
2012

> <PLATE>
B1002L2012M01

> <WELL>
P5

> <EOS>
EOS100552

> <CCMF_source_vial_barcode>
LV2001696468

> <concentration_mM>
10

> <volume_ul>
30

$$$$
EOS100553
  SciTegic04282016392D

 21 21  0  0  0  0            999 V2000
   -2.3277    1.4438    0.0000 C   0  0
   -3.0421    1.0313    0.0000 C   0  0
   -3.0421    0.2062    0.0000 C   0  0
   -2.3277   -0.2063    0.0000 C   0  0
   -1.6132    0.2062    0.0000 C   0  0
   -1.6132    1.0313    0.0000 C   0  0
   -3.7566    1.4438    0.0000 C   0  0
   -2.3277   -1.0313    0.0000 C   0  0
   -0.8987    1.4438    0.0000 C   0  0
   -0.8987    2.2688    0.0000 O   0  0
   -0.1843    1.0312    0.0000 N   0  0
    0.5302    1.4437    0.0000 O   0  0
    1.2447    1.0312    0.0000 C   0  0
    1.9591    1.4437    0.0000 C   0  0
    2.6736    1.0312    0.0000 C   0  0
    3.3881    1.4437    0.0000 C   0  0
    4.1026    1.0312    0.0000 C   0  0
    4.8170    1.4437    0.0000 C   0  0
    5.5315    1.0312    0.0000 N   0  0
    4.8170    2.2687    0.0000 O   0  0
    6.2460    1.4437    0.0000 O   0  0
  1  2  2  0
  1  6  1  0
  2  3  1  0
  3  4  2  0
  4  5  1  0
  5  6  2  0
  2  7  1  0
  4  8  1  0
  6  9  1  0
  9 10  2  0
  9 11  1  0
 11 12  1  0
 12 13  1  0
 13 14  1  0
 14 15  1  0
 15 16  1  0
 16 17  1  0
 17 18  1  0
 18 19  1  0
 18 20  2  0
 19 21  1  0
M  END
> <Library>
Bioactives

> <Batch>
2012

> <PLATE>
B1002L2012M01

> <WELL>
B7

> <EOS>
EOS100553

> <CCMF_source_vial_barcode>
LV2001695339

> <concentration_mM>
10

> <volume_ul>
30

$$$$
EOS100554
  SciTegic04282016392D

 28 30  0  0  0  0            999 V2000
    1.3659    2.9104    0.0000 C   0  0
    7.0859    2.0854    0.0000 C   0  0
    2.0809    3.3229    0.0000 N   0  0
    1.3659    2.0854    0.0000 C   0  0
    6.3709    4.1479    0.0000 C   0  0
    5.6559    4.5512    0.0000 N   0  0
    7.0859    2.9104    0.0000 C   0  0
    4.9409    4.1479    0.0000 C   0  0
    3.5109    4.1479    0.0000 N   0  0
    6.3709    3.3229    0.0000 C   0  0
    0.7012    1.5950    0.0000 O   0  0
    7.0859    4.5512    0.0000 C   0  0
    0.6509    3.3229    0.0000 O   0  0
    2.0350    1.5950    0.0000 C   0  0
    2.0809    4.1479    0.0000 C   0  0
    2.7959    2.9104    0.0000 C   0  0
    4.2259    4.5512    0.0000 C   0  0
    4.9409    3.3229    0.0000 O   0  0
    0.9534    0.8112    0.0000 C   0  0
    7.8009    3.3229    0.0000 C   0  0
    1.7784    0.8112    0.0000 C   0  0
    7.8009    4.1479    0.0000 C   0  0
    7.8834    1.8654    0.0000 F   0  0
    6.2609    2.1541    0.0000 F   0  0
    6.9346    1.2650    0.0000 F   0  0
    2.7959    4.5512    0.0000 C   0  0
    3.5109    3.3229    0.0000 C   0  0
    7.0859    5.3762    0.0000 Cl  0  0
  2  7  1  0
  3  1  1  0
  4  1  1  0
  5  6  1  0
  6  8  1  0
  7 10  1  0
  8 17  1  0
  9 27  1  0
 10  5  2  0
 11  4  1  0
 12  5  1  0
 13  1  2  0
 14  4  2  0
 15  3  1  0
 16  3  1  0
 17  9  1  0
 18  8  2  0
 19 11  1  0
 20 22  1  0
 21 14  1  0
 22 12  2  0
 23  2  1  0
 24  2  1  0
 25  2  1  0
 26 15  1  0
 27 16  1  0
 28 12  1  0
 21 19  2  0
 26  9  1  0
  7 20  2  0
M  END
> <Library>
Bioactives

> <Batch>
2012

> <PLATE>
B1002L2012M01

> <WELL>
D7

> <EOS>
EOS100554

> <CCMF_source_vial_barcode>
LV2001696476

> <concentration_mM>
10

> <volume_ul>
30

$$$$
EOS100555
  SciTegic04282016392D

 20 22  0  0  0  0            999 V2000
    1.0008    1.1315    0.0000 N   0  0
    0.2162    0.8766    0.0000 C   0  0
   -0.4983    1.2891    0.0000 C   0  0
   -1.2128    0.8766    0.0000 C   0  0
   -1.2128    0.0516    0.0000 C   0  0
   -0.4983   -0.3609    0.0000 C   0  0
    0.2162    0.0516    0.0000 C   0  0
    1.0008   -0.2034    0.0000 C   0  0
    1.3363   -0.9571    0.0000 C   0  0
    2.1568   -1.0433    0.0000 C   0  0
    2.6417   -0.3758    0.0000 C   0  0
    2.3062    0.3778    0.0000 C   0  0
    1.4857    0.4641    0.0000 C   0  0
   -1.9273   -0.3609    0.0000 C   0  0
   -1.9273    1.2891    0.0000 C   0  0
   -2.6417    0.8766    0.0000 C   0  0
   -2.6417    0.0516    0.0000 N   0  0
   -0.4983   -1.1859    0.0000 C   0  0
   -0.4983    2.1141    0.0000 C   0  0
    0.5535   -2.1141    0.0000 Cl  0  0
  1  2  1  0
  2  3  1  0
  3  4  2  0
  4  5  1  0
  5  6  2  0
  6  7  1  0
  2  7  2  0
  7  8  1  0
  8  9  1  0
  9 10  2  0
 10 11  1  0
 11 12  2  0
 12 13  1  0
  8 13  2  0
  1 13  1  0
 15 16  2  0
 16 17  1  0
 14 17  2  0
  4 15  1  0
  5 14  1  0
  6 18  1  0
  3 19  1  0
M  END
> <Library>
Bioactives

> <Batch>
2012

> <PLATE>
B1002L2012M01

> <WELL>
F7

> <EOS>
EOS100555

> <CCMF_source_vial_barcode>
LV2001695816

> <concentration_mM>
10

> <volume_ul>
30

$$$$
EOS100556
  SciTegic04282016392D

 39 39  0  0  1  0            999 V2000
    8.5673   -6.1520    0.0000 C   0  0  2  0  0  0
    7.2200   -6.4309    0.0000 P   0  0
    8.4042   -5.3768    0.0000 C   0  0  1  0  0  0
    7.9650   -6.7518    0.0000 O   0  0
    9.0613   -4.7983    0.0000 C   0  0  1  0  0  0
    9.3465   -6.4545    0.0000 O   0  0
    3.8400   -5.7362    0.0000 C   0  0
    5.7069   -7.2990    0.0000 C   0  0  1  0  0  0
    5.1620   -6.7180    0.0000 C   0  0
    9.8299   -5.1282    0.0000 C   0  0  2  0  0  0
    6.8549   -7.1274    0.0000 N   0  0
    3.4144   -6.9949    0.0000 N   0  0
    5.4661   -5.9348    0.0000 N   0  0
    4.0945   -6.5198    0.0000 C   0  0
    9.9353   -5.9711    0.0000 C   0  0  2  0  0  0
    5.1546   -5.2282    0.0000 C   0  0  2  0  0  0
    5.6237   -4.5767    0.0000 C   0  0
    3.0001   -5.7526    0.0000 C   0  0
    4.3259   -5.1228    0.0000 C   0  0
    6.5945   -6.2197    0.0000 O   0  5
    2.7356   -6.5150    0.0000 C   0  0
    7.5224   -5.6518    0.0000 O   0  0
    5.4151   -8.0508    0.0000 C   0  0
    6.4501   -4.6767    0.0000 O   0  5
    4.5412   -6.8780    0.0000 O   0  0
    5.3206   -3.8373    0.0000 O   0  0
    7.7748   -5.1640    0.0000 O   0  0
    8.8616   -4.0359    0.0000 O   0  0
   10.4398   -4.5899    0.0000 O   0  0
   10.6870   -6.2630    0.0000 C   0  0
    2.4344   -5.1320    0.0000 C   0  0
    5.9914   -8.6440    0.0000 C   0  0
    1.9223   -6.6949    0.0000 C   0  0
    6.8046   -8.4641    0.0000 C   0  0
    5.7269   -9.4064    0.0000 C   0  0
    1.6357   -5.2859    0.0000 C   0  0
    1.3514   -6.0994    0.0000 C   0  0
    9.3877   -8.2637    0.0000 Na  0  3
    7.0117   -3.6813    0.0000 Na  0  3
  2  4  1  0
  3  1  1  0
  1  4  1  1
  3  5  1  0
  1  6  1  0
  7 19  1  0
  8 11  1  1
  8  9  1  0
 10 15  1  0
 11  2  1  0
 12 14  1  0
 13  9  1  0
 14  7  2  0
 15  6  1  0
 16 13  1  1
 16 17  1  0
 18  7  1  0
 16 19  1  0
 20  2  1  0
 21 18  1  0
 22  2  2  0
  8 23  1  0
 24 17  1  0
 25  9  2  0
 26 17  2  0
  3 27  1  6
  5 28  1  6
 10 29  1  1
 15 30  1  6
 31 18  2  0
 32 23  1  0
 33 21  2  0
 34 32  1  0
 35 32  1  0
 36 31  1  0
 37 36  2  0
  5 10  1  0
 21 12  1  0
 37 33  1  0
M  CHG  4  20  -1  24  -1  38   1  39   1
M  END
> <Library>
Bioactives

> <Batch>
2012

> <PLATE>
B1002L2012M01

> <WELL>
H7

> <EOS>
EOS100556

> <CCMF_source_vial_barcode>
LV2001695824

> <concentration_mM>
10

> <volume_ul>
30

$$$$
EOS100557
  SciTegic04282016392D

 29 31  0  0  0  0            999 V2000
   -0.7145   -0.4125    0.0000 C   0  0
   -0.7145    0.4125    0.0000 C   0  0
    0.0000    0.8250    0.0000 C   0  0
    0.7145    0.4125    0.0000 C   0  0
    0.7145   -0.4125    0.0000 C   0  0
    0.0000   -0.8250    0.0000 S   0  0
    0.0000    1.6500    0.0000 O   0  0
    1.4289    0.8250    0.0000 C   0  0
    2.1431    0.4125    0.0000 C   0  0
    2.8576    0.8250    0.0000 C   0  0
    3.5721    0.4125    0.0000 C   0  0
    3.5721   -0.4125    0.0000 C   0  0
    2.8576   -0.8250    0.0000 C   0  0
    2.1431   -0.4125    0.0000 C   0  0
    4.2865   -0.8250    0.0000 N   0  3
    4.2865   -1.6500    0.0000 O   0  0
    5.0010   -0.4125    0.0000 O   0  5
   -1.4289    0.8250    0.0000 C   0  0
   -2.1431    0.4125    0.0000 C   0  0
   -2.1431   -0.4125    0.0000 C   0  0
   -2.8576   -0.8250    0.0000 C   0  0
   -3.5721   -0.4125    0.0000 C   0  0
   -3.5721    0.4125    0.0000 C   0  0
   -2.8576    0.8250    0.0000 C   0  0
   -4.2865   -0.8250    0.0000 N   0  3
   -4.2865   -1.6500    0.0000 O   0  0
   -5.0010   -0.4125    0.0000 O   0  5
   -0.4125   -1.5395    0.0000 O   0  0
    0.4125   -1.5395    0.0000 O   0  0
  1  2  1  0
  2  3  1  0
  3  4  1  0
  4  5  1  0
  5  6  1  0
  1  6  1  0
  3  7  2  0
  9 10  2  0
 10 11  1  0
 11 12  2  0
 12 13  1  0
 13 14  2  0
  9 14  1  0
 15 16  2  0
 15 17  1  0
 12 15  1  0
  8  9  1  0
  4  8  2  0
 19 20  2  0
 20 21  1  0
 21 22  2  0
 22 23  1  0
 23 24  2  0
 19 24  1  0
 25 26  2  0
 25 27  1  0
 22 25  1  0
 18 19  1  0
  2 18  2  0
  6 28  2  0
  6 29  2  0
M  CHG  4  15   1  17  -1  25   1  27  -1
M  END
> <Library>
Bioactives

> <Batch>
2012

> <PLATE>
B1002L2012M01

> <WELL>
J7

> <EOS>
EOS100557

> <CCMF_source_vial_barcode>
LV2001696447

> <concentration_mM>
10

> <volume_ul>
30

$$$$
EOS100558
  SciTegic04282016392D

 46 51  0  0  0  0            999 V2000
   -2.6060   -3.6817    0.0000 C   0  0
   -1.8177   -3.9249    0.0000 C   0  0
   -1.2129   -3.3637    0.0000 O   0  0
   -0.4246   -3.6069    0.0000 C   0  0
    0.1802   -3.0457    0.0000 C   0  0
   -0.0034   -2.2414    0.0000 N   0  0
    0.6014   -1.6803    0.0000 C   0  0
    0.4178   -0.8760    0.0000 N   0  0
    1.0226   -0.3148    0.0000 C   0  0
    1.8109   -0.5580    0.0000 C   0  0
    2.3253    0.0870    0.0000 N   0  0
    1.9673    0.8303    0.0000 C   0  0
    3.1503    0.0870    0.0000 C   0  0
    3.5083    0.8303    0.0000 O   0  0
    3.6647   -0.5580    0.0000 C   0  0
    3.4811   -1.3623    0.0000 C   0  0
    4.0859   -1.9235    0.0000 C   0  0
    4.8742   -1.6803    0.0000 C   0  0
    5.0578   -0.8760    0.0000 C   0  0
    4.4530   -0.3148    0.0000 C   0  0
    2.7378   -1.7203    0.0000 N   0  0
    1.9945   -1.3623    0.0000 C   0  0
    1.3897   -1.9235    0.0000 N   0  0
    2.7378   -2.5453    0.0000 S   0  0
    2.7378   -3.3703    0.0000 C   0  0
    1.9128   -2.5453    0.0000 O   0  0
    3.5628   -2.5453    0.0000 O   0  0
    0.9685   -3.2889    0.0000 C   0  0
    1.1521   -4.0932    0.0000 C   0  0
    0.5474   -4.6544    0.0000 C   0  0
   -0.2410   -4.4112    0.0000 C   0  0
    0.7309   -5.4587    0.0000 C   0  0
    1.5193   -5.7019    0.0000 O   0  0
    0.1262   -6.0198    0.0000 N   0  0
    0.3097   -6.8242    0.0000 C   0  0
   -0.2950   -7.3853    0.0000 C   0  0
   -1.0834   -7.1421    0.0000 C   0  0
   -1.2669   -6.3378    0.0000 C   0  0
   -0.6622   -5.7767    0.0000 C   0  0
   -1.6881   -7.7033    0.0000 N   0  0
   -1.5046   -8.5076    0.0000 C   0  0
   -2.1093   -9.0687    0.0000 C   0  0
   -2.8977   -8.8255    0.0000 N   0  0
   -3.5024   -9.3867    0.0000 C   0  0
   -3.0812   -8.0212    0.0000 C   0  0
   -2.4765   -7.4601    0.0000 C   0  0
  1  2  1  0
  2  3  1  0
  3  4  1  0
  4  5  2  0
  5  6  1  0
  6  7  1  0
  7  8  2  0
  8  9  1  0
  9 10  2  0
 10 11  1  0
 11 12  1  0
 11 13  1  0
 13 14  2  0
 13 15  1  0
 15 16  2  0
 16 17  1  0
 17 18  2  0
 18 19  1  0
 19 20  2  0
 15 20  1  0
 16 21  1  0
 21 22  1  0
 10 22  1  0
 22 23  2  0
  7 23  1  0
 21 24  1  0
 24 25  1  0
 24 26  2  0
 24 27  2  0
  5 28  1  0
 28 29  2  0
 29 30  1  0
 30 31  2  0
  4 31  1  0
 30 32  1  0
 32 33  2  0
 32 34  1  0
 34 35  1  0
 35 36  1  0
 36 37  1  0
 37 38  1  0
 38 39  1  0
 34 39  1  0
 37 40  1  0
 40 41  1  0
 41 42  1  0
 42 43  1  0
 43 44  1  0
 43 45  1  0
 45 46  1  0
 40 46  1  0
M  END
> <Library>
Bioactives

> <Batch>
2012

> <PLATE>
B1002L2012M01

> <WELL>
L7

> <EOS>
EOS100558

> <CCMF_source_vial_barcode>
LV2001695813

> <concentration_mM>
10

> <volume_ul>
30

$$$$
EOS100559
  SciTegic04282016392D

 37 40  0  0  0  0            999 V2000
   -1.4289    1.0313    0.0000 O   0  0
   -0.7145    0.6188    0.0000 C   0  0
   -0.7145   -0.2062    0.0000 N   0  0
    0.0000   -0.6188    0.0000 C   0  0
    0.0000   -1.4437    0.0000 C   0  0
   -0.7145   -1.8562    0.0000 C   0  0
   -1.4289   -1.4438    0.0000 C   0  0
   -1.4289   -0.6188    0.0000 C   0  0
   -2.1434   -0.2062    0.0000 N   0  0
   -2.8579   -0.6188    0.0000 C   0  0
   -3.5724   -0.2063    0.0000 C   0  0
   -4.2868   -0.6188    0.0000 O   0  0
   -2.8579   -1.4438    0.0000 C   0  0
   -3.5724   -1.8563    0.0000 C   0  0
   -3.5724   -2.6812    0.0000 N   0  0
   -2.8579   -3.0938    0.0000 C   0  0
   -2.8579   -3.9188    0.0000 C   0  0
   -3.5724   -4.3312    0.0000 N   0  0
   -3.5724   -5.1563    0.0000 C   0  0
   -4.2868   -3.9188    0.0000 C   0  0
   -4.2868   -3.0938    0.0000 C   0  0
   -2.1434   -2.6812    0.0000 O   0  0
   -2.1434   -1.8563    0.0000 C   0  0
    0.0000    1.0313    0.0000 N   0  0
    0.0000    1.8563    0.0000 C   0  0
   -0.7145    2.2687    0.0000 N   0  0
   -0.7145    3.0938    0.0000 C   0  0
    0.0000    3.5063    0.0000 C   0  0
    0.0000    4.3312    0.0000 C   0  0
    0.0000    5.1563    0.0000 N   0  0
    0.7145    3.0938    0.0000 C   0  0
    1.4289    3.5063    0.0000 N   0  0
    2.1434    3.0937    0.0000 C   0  0
    2.8579    3.5062    0.0000 C   0  0
    3.5724    3.0937    0.0000 O   0  0
    4.2868    3.5062    0.0000 C   0  0
    0.7145    2.2687    0.0000 C   0  0
  1  2  2  0
  2  3  1  0
  3  4  1  0
  4  5  1  0
  5  6  1  0
  6  7  1  0
  7  8  2  0
  3  8  1  0
  8  9  1  0
  9 10  2  0
 10 11  1  0
 11 12  2  0
 10 13  1  0
 13 14  1  0
 14 15  1  0
 15 16  1  0
 16 17  1  0
 17 18  1  0
 18 19  1  0
 18 20  1  0
 20 21  1  0
 15 21  1  0
 16 22  2  0
 13 23  2  0
  7 23  1  0
  2 24  1  0
 24 25  1  0
 25 26  2  0
 26 27  1  0
 27 28  2  0
 28 29  1  0
 29 30  3  0
 28 31  1  0
 31 32  1  0
 32 33  1  0
 33 34  1  0
 34 35  1  0
 35 36  1  0
 31 37  2  0
 25 37  1  0
M  END
> <Library>
Bioactives

> <Batch>
2012

> <PLATE>
B1002L2012M01

> <WELL>
N7

> <EOS>
EOS100559

> <CCMF_source_vial_barcode>
LV2001695315

> <concentration_mM>
10

> <volume_ul>
30

$$$$
EOS100560
  SciTegic04282016392D

 38 41  0  0  0  0            999 V2000
    2.8578   -0.6187    0.0000 C   0  0
    2.1433   -0.2062    0.0000 N   0  0
    1.4289   -0.6187    0.0000 C   0  0
    1.4289   -1.4437    0.0000 C   0  0
    2.1433   -1.8562    0.0000 C   0  0
    2.8578   -1.4437    0.0000 N   0  0
    0.7145   -1.8562    0.0000 C   0  0
    0.0000   -1.4437    0.0000 C   0  0
    0.0000   -0.6187    0.0000 C   0  0
    0.7145   -0.2062    0.0000 N   0  0
   -0.7145   -0.2062    0.0000 O   0  0
    0.7145    0.6188    0.0000 C   0  0
    0.0000    1.0313    0.0000 C   0  0
    0.0000    1.8562    0.0000 C   0  0
   -0.7145    2.2687    0.0000 N   0  0
   -1.4289    1.8562    0.0000 C   0  0
   -2.1433    2.2687    0.0000 C   0  0
   -2.1433    3.0937    0.0000 N   0  0
   -1.4289    3.5062    0.0000 C   0  0
   -0.7145    3.0937    0.0000 C   0  0
   -2.8578    3.5062    0.0000 C   0  0
   -3.5723    3.0937    0.0000 C   0  0
   -4.2867    3.5062    0.0000 C   0  0
   -2.8578    4.3312    0.0000 O   0  0
    3.5723   -0.2062    0.0000 N   0  0
    4.2867   -0.6187    0.0000 C   0  0
   -0.7145   -1.8562    0.0000 C   0  0
   -0.7145   -2.6812    0.0000 C   0  0
   -1.4289   -3.0937    0.0000 C   0  0
   -2.1433   -2.6812    0.0000 C   0  0
   -2.1433   -1.8562    0.0000 C   0  0
   -1.4289   -1.4437    0.0000 C   0  0
   -2.8578   -1.4437    0.0000 O   0  0
   -3.5723   -1.8562    0.0000 C   0  0
   -1.4289   -3.9187    0.0000 O   0  0
   -2.1433   -4.3312    0.0000 C   0  0
   -1.4289   -0.6187    0.0000 Cl  0  0
    0.0000   -3.0937    0.0000 Cl  0  0
  1  2  1  0
  2  3  2  0
  3  4  1  0
  4  5  2  0
  5  6  1  0
  1  6  2  0
  7  8  2  0
  8  9  1  0
  9 10  1  0
  3 10  1  0
  4  7  1  0
  9 11  2  0
 12 13  1  0
 13 14  1  0
 15 16  1  0
 16 17  1  0
 17 18  1  0
 18 19  1  0
 19 20  1  0
 15 20  1  0
 21 22  1  0
 22 23  2  0
 21 24  2  0
 18 21  1  0
 14 15  1  0
 10 12  1  0
 25 26  1  0
  1 25  1  0
 27 28  2  0
 28 29  1  0
 29 30  2  0
 30 31  1  0
 31 32  2  0
 27 32  1  0
 33 34  1  0
 31 33  1  0
 35 36  1  0
 29 35  1  0
 32 37  1  0
 28 38  1  0
  8 27  1  0
M  END
> <Library>
Bioactives

> <Batch>
2012

> <PLATE>
B1002L2012M01

> <WELL>
P7

> <EOS>
EOS100560

> <CCMF_source_vial_barcode>
LV2001695303

> <concentration_mM>
10

> <volume_ul>
30

$$$$
EOS100561
  SciTegic04282016392D

 33 35  0  0  0  0            999 V2000
   -0.1371   -3.4936    0.0000 C   0  0
    0.2753   -4.2080    0.0000 C   0  0
   -0.9621   -3.4936    0.0000 N   0  0
    1.1004   -4.2080    0.0000 N   0  0
   -1.3745   -2.7791    0.0000 C   0  0
   -3.4692   -3.1916    0.0000 N   0  0
   -3.4692   -2.3667    0.0000 N   0  0
   -2.6846   -2.1116    0.0000 C   0  0
   -2.1996   -2.7791    0.0000 C   0  0
   -2.6846   -3.4466    0.0000 C   0  0
   -2.4297   -1.3270    0.0000 C   0  0
   -1.6226   -1.1555    0.0000 C   0  0
   -1.3676   -0.3709    0.0000 C   0  0
   -1.9197    0.2422    0.0000 C   0  0
   -2.7267    0.0707    0.0000 C   0  0
   -2.9817   -0.7139    0.0000 C   0  0
   -1.6647    1.0268    0.0000 O   0  0
   -0.8578    1.1983    0.0000 C   0  0  1  0  0  0
   -0.1659    0.7490    0.0000 C   0  0
    0.2834    1.4409    0.0000 C   0  0  1  0  0  0
   -0.4085    1.8902    0.0000 C   0  0
    1.0904    1.6125    0.0000 O   0  0
    1.3453    2.3972    0.0000 C   0  0
    2.1522    2.5687    0.0000 C   0  0
    2.1101    4.7510    0.0000 C   0  0
    1.8552    3.9664    0.0000 C   0  0
    2.4073    3.3533    0.0000 C   0  0
    3.2143    3.5248    0.0000 C   0  0
    3.4692    4.3094    0.0000 C   0  0
    2.9172    4.9225    0.0000 O   0  0
    1.5128   -4.9225    0.0000 C   0  0
   -1.3745   -4.2080    0.0000 C   0  0
    1.2694   -0.8026    0.0000 Cl  0  0
  1  2  1  0
  1  3  1  0
  2  4  1  0
  6  7  1  0
  7  8  2  0
  8  9  1  0
  9 10  2  0
  6 10  1  0
 11 12  2  0
 12 13  1  0
 13 14  2  0
 14 15  1  0
 15 16  2  0
 11 16  1  0
 18 19  1  0
 20 19  1  0
 20 21  1  0
 18 21  1  0
 23 24  1  0
 22 23  1  0
 25 26  1  0
 26 27  1  0
 27 28  1  0
 28 29  1  0
 29 30  1  0
 25 30  1  0
 24 27  1  0
 20 22  1  1
 18 17  1  6
 14 17  1  0
  8 11  1  0
  5  9  1  0
  3  5  1  0
  4 31  1  0
  3 32  1  0
M  END
> <Library>
Bioactives

> <Batch>
2012

> <PLATE>
B1002L2012M01

> <WELL>
B9

> <EOS>
EOS100561

> <CCMF_source_vial_barcode>
LV2001695302

> <concentration_mM>
10

> <volume_ul>
30

$$$$
EOS100562
  SciTegic04282016392D

 20 22  0  0  0  0            999 V2000
    3.1785   -3.4633    0.0000 C   0  0
    3.1774   -2.6358    0.0000 C   0  0
    3.8923   -2.2228    0.0000 C   0  0
    3.8905   -3.8762    0.0000 C   0  0
    4.6061   -3.4670    0.0000 C   0  0
    4.6049   -2.6383    0.0000 C   0  0
    5.3181   -2.2252    0.0000 C   0  0
    6.0368   -2.6363    0.0000 C   0  0
    6.0380   -3.4650    0.0000 C   0  0
    5.3204   -3.8826    0.0000 O   0  0
    6.7518   -3.8729    0.0000 C   0  0
    7.4673   -3.4615    0.0000 C   0  0
    8.1791   -3.8754    0.0000 C   0  0
    8.1767   -4.7004    0.0000 C   0  0
    7.4566   -5.1099    0.0000 C   0  0
    6.7477   -4.6937    0.0000 C   0  0
    3.8940   -1.3976    0.0000 O   0  0
    2.4638   -3.8758    0.0000 O   0  0
    5.3157   -1.4000    0.0000 O   0  0
    6.7503   -2.2217    0.0000 O   0  0
  8  9  2  0
  9 10  1  0
  9 11  1  0
  5  6  1  0
 11 12  2  0
  2  3  1  0
 12 13  1  0
  3  6  2  0
 13 14  2  0
  1  2  2  0
 14 15  1  0
  5  4  2  0
 15 16  2  0
 16 11  1  0
  4  1  1  0
  3 17  1  0
  5 10  1  0
  1 18  1  0
  6  7  1  0
  7 19  2  0
  7  8  1  0
  8 20  1  0
M  END
> <Library>
Bioactives

> <Batch>
2012

> <PLATE>
B1002L2012M01

> <WELL>
D9

> <EOS>
EOS100562

> <CCMF_source_vial_barcode>
LV2001696475

> <concentration_mM>
10

> <volume_ul>
30

$$$$
EOS100563
  SciTegic04282016392D

 29 32  0  0  0  0            999 V2000
    4.3100   -2.6268    0.0000 C   0  0  2  0  0  0
    5.1214   -2.3477    0.0000 C   0  0  1  0  0  0
    2.1751   -3.8093    0.0000 C   0  0  2  0  0  0
    3.6022   -3.8237    0.0000 C   0  0  1  0  0  0
    4.3100   -3.4180    0.0000 C   0  0  2  0  0  0
    2.8858   -3.4008    0.0000 C   0  0  2  0  0  0
    2.1694   -4.6351    0.0000 C   0  0
    3.6194   -2.1694    0.0000 C   0  0
    2.8916   -2.5750    0.0000 C   0  0  2  0  0  0
    5.8089   -1.6861    0.0000 C   0  0
    1.4616   -5.0437    0.0000 C   0  0
    5.5961   -3.0239    0.0000 C   0  0
    5.1012   -3.6856    0.0000 C   0  0
    3.5936   -4.6380    0.0000 C   0  0
    1.4616   -3.3951    0.0000 C   0  0
    2.8772   -5.0437    0.0000 C   0  0
    0.7539   -4.6351    0.0000 C   0  0
    7.1584   -0.8833    0.0000 C   0  0
    6.4938   -2.0629    0.0000 C   0  0
    5.7859   -0.9495    0.0000 O   0  0
    7.1757   -1.6688    0.0000 O   0  0
    6.4679   -0.5035    0.0000 O   0  0
    0.0432   -5.0437    0.0000 O   0  0
    4.8767   -1.5479    0.0000 O   0  0
    4.3157   -1.8069    0.0000 C   0  0
    0.7539   -3.8093    0.0000 C   0  0
    2.1004   -2.1349    0.0000 O   0  0
    2.1867   -2.9463    0.0000 C   0  0
    7.8287   -0.4776    0.0000 C   0  0
  1  2  1  0
  6  3  1  1
  4  5  1  0
  5  1  1  0
  6  9  1  0
  3  7  1  0
  1  8  1  0
  9  8  1  0
  2 10  1  1
 11  7  2  0
  2 12  1  0
  5 13  1  1
  4 14  1  6
  3 15  1  0
 16 14  1  0
 17 26  1  0
 18 21  1  0
 19 10  1  0
 20 10  2  0
 21 19  1  0
 22 18  2  0
 23 17  2  0
  2 24  1  6
  1 25  1  1
 26 15  1  0
  9 27  1  1
  3 28  1  1
 29 18  1  0
 13 12  1  0
  6  4  1  0
 16  7  1  0
 17 11  1  0
M  END
> <Library>
Bioactives

> <Batch>
2012

> <PLATE>
B1002L2012M01

> <WELL>
F9

> <EOS>
EOS100563

> <CCMF_source_vial_barcode>
LV2001695261

> <concentration_mM>
10

> <volume_ul>
30

$$$$
EOS100564
  SciTegic04282016392D

 21 23  0  0  0  0            999 V2000
    0.9714   -0.0997    0.0000 N   0  0
    1.5158    0.5088    0.0000 C   0  0
    1.4019   -0.8113    0.0000 C   0  0
    2.2736    0.1886    0.0000 C   0  0
    2.2096   -0.6227    0.0000 C   0  0
   -2.7824   -0.5124    0.0000 C   0  0
    0.1530   -0.0249    0.0000 C   0  0
    1.3272    1.3200    0.0000 O   0  0
   -2.3128    0.1565    0.0000 C   0  0
   -1.4837    0.0854    0.0000 C   0  0
   -3.6044   -0.4412    0.0000 O   0  0
   -0.1886    0.7009    0.0000 C   0  0
   -0.3096   -0.7152    0.0000 C   0  0
   -1.1315   -0.6440    0.0000 C   0  0
   -1.0105    0.7686    0.0000 C   0  0
   -2.4302   -1.2525    0.0000 O   0  0
    3.0244    0.5408    0.0000 C   0  0
    2.8857   -1.0924    0.0000 C   0  0
   -2.6650    0.9073    0.0000 C   0  0
    3.7076    0.0711    0.0000 C   0  0
    3.6329   -0.7401    0.0000 C   0  0
  2  1  1  0
  3  1  1  0
  4  2  1  0
  5  3  1  0
  6  9  1  0
  7  1  1  0
  8  2  2  0
  9 10  1  0
 10 14  1  0
 11  6  2  0
 12  7  2  0
 13  7  1  0
 14 13  2  0
 15 12  1  0
 16  6  1  0
 17  4  2  0
 18  5  2  0
 19  9  1  0
 20 17  1  0
 21 18  1  0
  4  5  1  0
 15 10  2  0
 20 21  2  0
M  END
> <Library>
Bioactives

> <Batch>
2012

> <PLATE>
B1002L2012M01

> <WELL>
H9

> <EOS>
EOS100564

> <CCMF_source_vial_barcode>
LV2001696501

> <concentration_mM>
10

> <volume_ul>
30

$$$$
EOS100565
  SciTegic04282016392D

 16 17  0  0  0  0            999 V2000
    5.7351   -2.0564    0.0000 C   0  0
    4.9301   -2.2691    0.0000 C   0  0
    4.6966   -3.0656    0.0000 C   0  0
    6.0730   -1.3181    0.0000 N   0  0
    6.3483   -2.6069    0.0000 N   0  0
    3.9082   -3.2909    0.0000 C   0  0
    6.6861   -3.9416    0.0000 Cl  0  0
    4.3587   -1.6809    0.0000 C   0  0
    6.8988   -1.3931    0.0000 C   0  0
    5.2847   -3.6705    0.0000 C   0  0
    7.0615   -2.1898    0.0000 C   0  0
    3.5287   -1.9061    0.0000 C   0  0
    3.3202   -2.6820    0.0000 C   0  0
    3.6788   -4.0834    0.0000 C   0  0
    5.0720   -4.4588    0.0000 C   0  0
    4.2336   -4.6799    0.0000 C   0  0
  2  1  1  0
  3  2  1  0
  4  1  2  0
  5  1  1  0
  6  3  2  0
  8  2  1  0
  9  4  1  0
 10  3  1  0
 11  5  1  0
 12  8  1  0
 13 12  1  0
 14  6  1  0
 15 10  2  0
 16 15  1  0
 11  9  1  0
 13  6  1  0
 14 16  2  0
M  END
> <Library>
Bioactives

> <Batch>
2012

> <PLATE>
B1002L2012M01

> <WELL>
J9

> <EOS>
EOS100565

> <CCMF_source_vial_barcode>
LV2001696478

> <concentration_mM>
10

> <volume_ul>
30

$$$$
EOS100566
  SciTegic04282016392D

 37 37  0  0  0  0            999 V2000
    9.4874   -5.0360    0.0000 C   0  0
    8.8736   -5.3910    0.0000 C   0  0
   10.1013   -5.3868    0.0000 C   0  0
    4.8648   -2.1840    0.0000 C   0  0
    9.4874   -4.3261    0.0000 C   0  0
    5.4787   -2.7352    0.0000 C   0  0
   10.7151   -5.0360    0.0000 C   0  0
    8.2597   -5.0402    0.0000 C   0  0
    5.4536   -1.5952    0.0000 C   0  0
    8.8694   -3.9754    0.0000 O   0  0
    6.2679   -2.4804    0.0000 O   0  0
    8.2597   -4.3261    0.0000 O   0  0
   10.7109   -4.3261    0.0000 O   0  0
    9.4874   -5.7417    0.0000 O   0  0
   10.0970   -3.9712    0.0000 O   0  0
    5.3116   -3.5369    0.0000 O   0  0
    6.6813   -7.6083    0.0000 N   0  0
   11.3289   -5.3868    0.0000 O   0  0
    7.6459   -5.3910    0.0000 O   0  0
    4.1633   -2.5974    0.0000 C   0  0
    4.6894   -1.3697    0.0000 C   0  0
    6.3806   -5.4494    0.0000 O   0  0
    6.2511   -1.8081    0.0000 C   0  0
    5.2364   -0.7934    0.0000 C   0  0
    6.8399   -6.7940    0.0000 C   0  0
    7.3077   -8.1470    0.0000 C   0  0
    5.9004   -7.8797    0.0000 C   0  0
    5.9296   -4.0881    0.0000 C   0  0
    6.2178   -6.2554    0.0000 C   0  0
    5.7626   -4.9024    0.0000 C   0  0
    3.8710   -1.2820    0.0000 C   0  0
    3.5369   -2.0420    0.0000 C   0  0
    7.1531   -8.9613    0.0000 C   0  0
    5.2740   -7.3327    0.0000 C   0  0
    6.8316   -1.2194    0.0000 C   0  0
    5.8169   -0.2130    0.0000 C   0  0
    6.6187   -0.4301    0.0000 C   0  0
  2  1  1  0
  3  1  1  0
  5  1  1  0
  6  4  1  0
  7  3  1  0
  8  2  1  0
  9  4  1  0
 10  5  2  0
 11  6  2  0
 12  8  2  0
 13  7  2  0
 14  1  1  0
 15  5  1  0
 16  6  1  0
 17 25  1  0
 18  7  1  0
 19  8  1  0
 20  4  1  0
 21  4  1  0
 22 30  1  0
 23  9  2  0
 24  9  1  0
 25 29  1  0
 26 17  1  0
 27 17  1  0
 28 16  1  0
 29 22  1  0
 30 28  1  0
 31 21  1  0
 32 20  1  0
 33 26  1  0
 34 27  1  0
 35 23  1  0
 36 24  2  0
 37 36  1  0
 32 31  1  0
 37 35  2  0
M  END
> <Library>
Bioactives

> <Batch>
2012

> <PLATE>
B1002L2012M01

> <WELL>
L9

> <EOS>
EOS100566

> <CCMF_source_vial_barcode>
LV2001696491

> <concentration_mM>
10

> <volume_ul>
30

$$$$
EOS100567
  SciTegic04282016392D

 14 14  0  0  0  0            999 V2000
    1.3415    2.4611    0.0000 C   0  0
    0.6260    2.8586    0.0000 C   0  0
    1.3415    1.6297    0.0000 C   0  0
    0.6260    1.2189    0.0000 C   0  0
   -0.0894    2.4611    0.0000 C   0  0
    2.0570    2.8718    0.0000 O   0  0
   -0.0894    1.6297    0.0000 C   0  0
   -0.8049    2.8718    0.0000 O   0  0
    2.0570    1.2024    0.0000 C   0  0
    2.0570    0.3941    0.0000 C   0  0
    3.4714   -1.2455    0.0000 C   0  0
    2.7725   -0.8347    0.0000 C   0  0
    2.7725   -0.0232    0.0000 C   0  0
    3.4714   -2.0570    0.0000 C   0  0
  2  1  2  0
  3  1  1  0
  4  3  2  0
  5  2  1  0
  6  1  1  0
  7  4  1  0
  8  5  1  0
  9  3  1  0
 10  9  1  0
 11 12  1  0
 12 13  1  0
 13 10  1  0
 14 11  1  0
  7  5  2  0
M  END
> <Library>
Bioactives

> <Batch>
2012

> <PLATE>
B1002L2012M01

> <WELL>
N9

> <EOS>
EOS100567

> <CCMF_source_vial_barcode>
LV2001696497

> <concentration_mM>
10

> <volume_ul>
30

$$$$
EOS100568
  SciTegic04282016392D

 11 11  0  0  0  0            999 V2000
   -0.9700   -0.5578    0.0000 S   0  0
   -0.2594   -0.1548    0.0000 C   0  0
   -0.5627   -1.2684    0.0000 O   0  0
   -1.3854    0.1525    0.0000 O   0  0
   -1.6845   -0.9693    0.0000 N   0  0
   -0.2594    0.6679    0.0000 C   0  0
    0.4509   -0.5661    0.0000 C   0  0
    1.1698    0.6762    0.0000 C   0  0
    1.8803    1.0874    0.0000 N   0  0
    0.4509    1.0874    0.0000 C   0  0
    1.1698   -0.1548    0.0000 C   0  0
  2  1  1  0
  3  1  2  0
  4  1  2  0
  5  1  1  0
  6  2  2  0
  7  2  1  0
  8 11  1  0
  9  8  1  0
 10  6  1  0
 11  7  2  0
 10  8  2  0
M  END
> <Library>
Bioactives

> <Batch>
2012

> <PLATE>
B1002L2012M01

> <WELL>
P9

> <EOS>
EOS100568

> <CCMF_source_vial_barcode>
LV2001696450

> <concentration_mM>
10

> <volume_ul>
30

$$$$
EOS100569
  SciTegic04282016392D

 30 32  0  0  0  0            999 V2000
   -0.3044    0.3382    0.0000 N   0  0
   -1.1289    0.3382    0.0000 C   0  0
   -0.3044    1.1670    0.0000 C   0  0  1  0  0  0
   -1.1289    1.1670    0.0000 C   0  0  2  0  0  0
    0.4102   -0.0888    0.0000 C   0  0
    4.0083    0.3044    0.0000 S   0  0
   -5.2472    0.7822    0.0000 N   0  0
    0.4102    1.5856    0.0000 S   0  0
   -4.7652    1.4037    0.0000 N   0  0
   -3.9914    1.1670    0.0000 N   0  0
    1.1162    0.3551    0.0000 C   0  0
    3.2345    0.0507    0.0000 C   0  0
   -4.7905    0.0718    0.0000 N   0  0
    3.2345   -0.7780    0.0000 N   0  0
    4.0253   -1.0147    0.0000 N   0  0
   -1.8731    1.5856    0.0000 N   0  0
    0.4102   -0.8922    0.0000 C   0  0
    4.5200   -0.3341    0.0000 C   0  0
   -3.9914    0.3382    0.0000 C   0  0
   -2.5707    1.1670    0.0000 C   0  0
   -3.2938    1.5856    0.0000 C   0  0
    1.1162    1.1627    0.0000 C   0  0
   -1.8731   -0.1184    0.0000 O   0  0
    2.5243    0.4186    0.0000 S   0  0
    1.8309   -0.0296    0.0000 C   0  0
   -0.3044   -1.2347    0.0000 O   0  5
    1.1162   -1.2727    0.0000 O   0  0
   -2.5707    0.3551    0.0000 O   0  0
   -0.7103   -2.1607    0.0000 Na  0  3
    5.3656   -0.3341    0.0000 C   0  0
  2  1  1  0
  3  1  1  0
  3  4  1  0
  5  1  1  0
  6 12  1  0
  7  9  2  0
  3  8  1  1
  9 10  1  0
 10 21  1  0
 11  5  2  0
 12 24  1  0
 13 19  2  0
 14 12  2  0
 15 14  1  0
  4 16  1  1
 17  5  1  0
 18  6  1  0
 19 10  1  0
 20 16  1  0
 21 20  1  0
 22 11  1  0
 23  2  2  0
 24 25  1  0
 25 11  1  0
 26 17  1  0
 27 17  2  0
 28 20  2  0
 30 18  1  0
  4  2  1  0
  8 22  1  0
 18 15  2  0
  7 13  1  0
M  CHG  2  26  -1  29   1
M  END
> <Library>
Bioactives

> <Batch>
2012

> <PLATE>
B1002L2012M01

> <WELL>
B11

> <EOS>
EOS100569

> <CCMF_source_vial_barcode>
LV2001696457

> <concentration_mM>
10

> <volume_ul>
30

$$$$
EOS100570
  SciTegic04282016392D

 33 35  0  0  0  0            999 V2000
    5.7521   -3.1946    0.0000 C   0  0
    5.7521   -2.3696    0.0000 C   0  0
    5.0325   -3.6071    0.0000 N   0  0
    4.3221   -2.3696    0.0000 N   0  0
    4.3221   -3.1946    0.0000 C   0  0
    5.0325   -1.9525    0.0000 C   0  0
    7.1912   -3.1946    0.0000 N   0  0
    6.4671   -1.9434    0.0000 N   0  0
    7.1912   -2.3696    0.0000 C   0  0
    3.6071   -3.6071    0.0000 O   0  0
    5.0325   -1.1275    0.0000 O   0  0
    1.3612   -2.6446    0.0000 C   0  0
    5.0325   -4.4321    0.0000 C   0  0
    7.9062   -1.9571    0.0000 Cl  0  0
    3.6025   -1.9571    0.0000 C   0  0
    0.6462   -2.2321    0.0000 C   0  0
    1.3612   -3.4696    0.0000 C   0  0
    2.7821   -0.1696    0.0000 N   0  0
    2.0671   -2.2321    0.0000 O   0  0
    2.0671   -1.4071    0.0000 C   0  0
    2.7821   -0.9946    0.0000 C   0  0
    0.6462   -1.4071    0.0000 C   0  0
    0.6509   -3.8821    0.0000 C   0  0
   -0.0641   -2.6446    0.0000 C   0  0
    2.0762   -3.8821    0.0000 C   0  0
    3.4925    0.2429    0.0000 C   0  0
    2.0671    0.2429    0.0000 C   0  0
    0.6509   -4.7071    0.0000 C   0  0
    2.0762   -4.7071    0.0000 C   0  0
   -0.0641   -0.9946    0.0000 C   0  0
   -0.7791   -2.2321    0.0000 C   0  0
   -0.7791   -1.4071    0.0000 C   0  0
    1.3612   -5.1196    0.0000 C   0  0
  2  1  2  0
  3  1  1  0
  4  5  1  0
  5  3  1  0
  6  2  1  0
  7  1  1  0
  8  2  1  0
  9  7  2  0
 10  5  2  0
 11  6  2  0
 13  3  1  0
 14  9  1  0
 15  4  1  0
 16 12  1  0
 17 12  1  0
 18 21  1  0
 19 12  1  0
 20 19  1  0
 21 20  1  0
 22 16  2  0
 23 17  2  0
 24 16  1  0
 25 17  1  0
 26 18  1  0
 27 18  1  0
 28 23  1  0
 29 25  2  0
 30 22  1  0
 31 24  2  0
 32 31  1  0
 33 29  1  0
  9  8  1  0
  6  4  1  0
 28 33  2  0
 30 32  2  0
M  END
> <Library>
Bioactives

> <Batch>
2012

> <PLATE>
B1002L2012M01

> <WELL>
D11

> <EOS>
EOS100570

> <CCMF_source_vial_barcode>
LV2001695305

> <concentration_mM>
10

> <volume_ul>
30

$$$$
EOS100571
  SciTegic04282016392D

 44 42  0  0  0  0            999 V2000
   -0.4914    0.0505    0.0000 S   0  0
   10.6493   -5.0423    0.0000 C   0  0
    4.5187   -0.0827    0.0000 C   0  0
    7.6368   -9.5196    0.0000 C   0  0
   -1.0332    0.6016    0.0000 O   0  0
    0.0460    0.6016    0.0000 O   0  0
    6.3923   -1.2123    0.0000 C   0  0
   11.9856   -6.7690    0.0000 C   0  0
    3.9678   -0.6889    0.0000 N   0  0
    9.8412   -4.8769    0.0000 N   0  0
    7.3750   -8.7345    0.0000 N   0  0
    4.2615    0.7027    0.0000 O   0  0
   11.2004   -4.4269    0.0000 O   0  0
    8.4451   -9.6850    0.0000 O   0  0
   10.9110   -5.8274    0.0000 C   0  0
    5.3225   -0.2526    0.0000 C   0  0
    0.1653   -0.3307    0.0000 O   0  0
   12.7893   -6.9343    0.0000 O   0  0
    6.9435   -0.5971    0.0000 O   0  0
   11.4346   -7.3842    0.0000 N   0  0
    6.6450   -1.9977    0.0000 N   0  0
    5.5794   -1.0378    0.0000 C   0  0
   11.7240   -5.9928    0.0000 C   0  0
   -1.1526   -0.3307    0.0000 C   0  0
    9.2900   -5.4970    0.0000 O   0  0
    6.5715   -8.5691    0.0000 O   0  0
    4.2156   -1.4741    0.0000 O   0  0
    0.7989    2.2043    0.0000 N   0  0
    7.0859  -10.1305    0.0000 C   0  0
    3.1595   -0.5098    0.0000 C   0  0
    7.9215   -8.1191    0.0000 C   0  0
    9.5885   -4.0916    0.0000 C   0  0
    7.4531   -2.1768    0.0000 C   0  0
   10.6217   -7.2188    0.0000 C   0  0
    1.0470    1.4190    0.0000 C   0  0
    8.7253   -8.2844    0.0000 C   0  0
    2.9068    0.2756    0.0000 C   0  0
    8.7756   -3.9173    0.0000 C   0  0
   10.0754   -7.8389    0.0000 C   0  0
    7.7149   -2.9619    0.0000 C   0  0
    1.8461    1.2399    0.0000 C   0  0
    2.1079    0.4547    0.0000 C   0  0
    9.2716   -7.6735    0.0000 C   0  0
    8.5186   -3.1319    0.0000 C   0  0
  3 16  1  0
  4 11  1  0
  5  1  2  0
  6  1  2  0
  7 21  1  0
  8 23  1  0
  9  3  1  0
 10  2  1  0
 11 31  1  0
 12  3  2  0
 13  2  2  0
 14  4  2  0
 15  2  1  0
 16 22  1  0
 17  1  1  0
 18  8  2  0
 19  7  2  0
 20  8  1  0
 21 33  1  0
 22  7  1  0
 23 15  1  0
 24  1  1  0
 25 10  1  0
 26 11  1  0
 27  9  1  0
 28 35  1  0
 29  4  1  0
 30  9  1  0
 31 36  1  0
 32 10  1  0
 33 40  1  0
 34 20  1  0
 35 41  1  0
 36 43  1  0
 37 30  1  0
 38 32  1  0
 39 34  1  0
 40 44  1  0
 41 42  1  0
 42 37  1  0
 43 39  1  0
 44 38  1  0
M  END
> <Library>
Bioactives

> <Batch>
2012

> <PLATE>
B1002L2012M01

> <WELL>
F11

> <EOS>
EOS100571

> <CCMF_source_vial_barcode>
LV2001695344

> <concentration_mM>
10

> <volume_ul>
30

$$$$
EOS100572
  SciTegic04282016392D

 31 35  0  0  0  0            999 V2000
    4.6167   -1.0792    0.0000 C   0  0  1  0  0  0
    3.8208   -1.2958    0.0000 C   0  0  2  0  0  0
    1.6708   -2.5292    0.0000 C   0  0  1  0  0  0
    3.8167   -2.1208    0.0000 C   0  0  2  0  0  0
    1.6708   -3.3542    0.0000 C   0  0
    3.1000   -2.5333    0.0000 C   0  0  1  0  0  0
    2.3875   -2.1167    0.0000 C   0  0  2  0  0  0
    5.2000   -1.6625    0.0000 C   0  0  2  0  0  0
    5.3292   -0.6625    0.0000 O   0  0
    3.1042   -0.8833    0.0000 C   0  0
    6.0417   -1.0750    0.0000 C   0  0
    2.3917   -1.2917    0.0000 C   0  0  2  0  0  0
    6.0208   -1.6333    0.0000 O   0  0
    4.6125   -2.3292    0.0000 C   0  0
    3.1000   -3.3542    0.0000 C   0  0
    2.3875   -3.7667    0.0000 C   0  0  2  0  0  0
    0.9583   -3.7625    0.0000 C   0  0
    4.6125   -0.2542    0.0000 C   0  0
    0.9625   -2.1167    0.0000 C   0  0
    0.2500   -3.3542    0.0000 C   0  0
    4.3917    0.5458    0.0000 O   0  0
   -0.4667   -3.7667    0.0000 O   0  0
    3.8167   -0.4667    0.0000 C   0  0
    0.2500   -2.5292    0.0000 C   0  0
    1.6667   -1.7042    0.0000 C   0  0
    2.3833   -4.5917    0.0000 F   0  0
    1.6750   -0.8792    0.0000 O   0  0
    3.8958    0.1583    0.0000 C   0  0
    6.0375   -0.2500    0.0000 C   0  0
    6.8667   -1.0750    0.0000 C   0  0
    3.1833   -0.2583    0.0000 O   0  0
  2  1  1  0
  7  3  1  1
  4  2  1  0
 16  5  1  0
  6  4  1  0
  7  6  1  0
  1  8  1  0
  1  9  1  0
  2 10  1  0
 11  9  1  0
 12 10  1  0
  8 13  1  0
  8 14  1  6
  6 15  1  6
 16 15  1  0
 17  5  2  0
  1 18  1  1
  3 19  1  0
 20 17  1  0
 21 18  2  0
 22 20  2  0
  2 23  1  1
 24 19  1  0
  3 25  1  1
 16 26  1  6
 12 27  1  1
 28 18  1  0
 29 11  1  0
 30 11  1  0
 31 28  1  0
 11 13  1  0
  4 14  1  1
  7 12  1  0
  3  5  1  0
 20 24  1  0
M  END
> <Library>
Bioactives

> <Batch>
2012

> <PLATE>
B1002L2012M01

> <WELL>
H11

> <EOS>
EOS100572

> <CCMF_source_vial_barcode>
LV2001696492

> <concentration_mM>
10

> <volume_ul>
30

$$$$
EOS100573
  SciTegic04282016392D

 23 25  0  0  0  0            999 V2000
    4.9647    2.4740    0.0000 C   0  0
    3.5705    2.4740    0.0000 C   0  0
    4.2538    2.9038    0.0000 C   0  0
    3.5705    1.6530    0.0000 C   0  0
    4.9647    1.6530    0.0000 C   0  0
    4.2538    1.2342    0.0000 N   0  0
    2.8488    1.2342    0.0000 C   0  0
    2.1380    1.6530    0.0000 C   0  0
    2.8488    2.9038    0.0000 C   0  0
    5.6864    2.9038    0.0000 C   0  0
    2.1380    2.4740    0.0000 C   0  0
    1.4272    1.2342    0.0000 N   0  0
    4.2538    3.7193    0.0000 O   0  0
    0.0000    0.3967    0.0000 N   0  0
    5.6864    3.7193    0.0000 O   0  0
    1.4272    2.9038    0.0000 F   0  0
    6.4138    2.5071    0.0000 O   0  0
    4.2538    0.3967    0.0000 C   0  0
    0.6999    1.6530    0.0000 C   0  0
    1.4272    0.3967    0.0000 C   0  0
    0.0000    1.2342    0.0000 C   0  0
    0.6999    0.0000    0.0000 C   0  0
    3.5705    0.0000    0.0000 C   0  0
  2  3  1  0
  3  1  1  0
  4  6  1  0
  5  1  2  0
  6  5  1  0
  7  4  2  0
  8  7  1  0
  9  2  2  0
 10  1  1  0
 11  9  1  0
 12  8  1  0
 13  3  2  0
 14 22  1  0
 15 10  2  0
 16 11  1  0
 17 10  1  0
 18  6  1  0
 19 12  1  0
 20 12  1  0
 21 19  1  0
 22 20  1  0
 23 18  1  0
  4  2  1  0
  8 11  2  0
 21 14  1  0
M  END
> <Library>
Bioactives

> <Batch>
2012

> <PLATE>
B1002L2012M01

> <WELL>
J11

> <EOS>
EOS100573

> <CCMF_source_vial_barcode>
LV2001696514

> <concentration_mM>
10

> <volume_ul>
30

$$$$
EOS100574
  SciTegic04282016392D

 35 39  0  0  0  0            999 V2000
    4.3301    0.0335    0.0000 C   0  0  1  0  0  0
    1.4084   -1.4630    0.0000 C   0  0  2  0  0  0
    3.5379   -0.2180    0.0000 C   0  0  2  0  0  0
    2.1168   -1.0480    0.0000 C   0  0  2  0  0  0
    1.4084   -2.2887    0.0000 C   0  0
    3.5379   -1.0480    0.0000 C   0  0  2  0  0  0
    2.8337   -1.4630    0.0000 C   0  0  2  0  0  0
    4.8037   -0.6330    0.0000 C   0  0  2  0  0  0
    4.8458    0.7000    0.0000 O   0  0
    2.1168   -0.2180    0.0000 C   0  0  2  0  0  0
    0.7042   -1.0480    0.0000 C   0  0
    2.8337    0.1970    0.0000 C   0  0
    5.6002    0.4233    0.0000 C   0  0
    5.6128   -0.3815    0.0000 O   0  0
    4.3175   -1.2995    0.0000 C   0  0
    4.1667    0.7419    0.0000 C   0  0
    2.8337   -2.2887    0.0000 C   0  0
    2.1168   -2.6953    0.0000 C   0  0  2  0  0  0
    0.7042   -2.6953    0.0000 C   0  0
   -0.0083   -1.4630    0.0000 C   0  0
   -0.0083   -2.2887    0.0000 C   0  0
    2.3558    2.0078    0.0000 C   0  0
    2.0917   -1.9115    0.0000 F   0  0
    3.3618    0.9766    0.0000 C   0  0
    4.8960    1.4293    0.0000 O   0  0
    3.1480    1.7857    0.0000 O   0  0
    2.1043    2.7874    0.0000 O   0  0
   -0.7293   -2.6953    0.0000 O   0  0
    1.4084   -0.6330    0.0000 C   0  0
    3.5379    0.6120    0.0000 C   0  0
    1.4084    0.1844    0.0000 O   0  0
    2.1168   -3.5253    0.0000 F   0  0
    5.8224    1.3288    0.0000 C   0  0
    6.5308    0.2221    0.0000 C   0  0
    1.7228    1.4797    0.0000 C   0  0
  4  2  1  0
  3  1  1  0
  4 10  1  0
  2  5  1  0
  6  3  1  0
  7  6  1  0
  1  8  1  0
  1  9  1  0
 10 12  1  0
  2 11  1  0
  3 12  1  0
 13  9  1  0
  8 14  1  0
  8 15  1  6
  1 16  1  1
  7 17  1  6
 18 17  1  0
 19  5  2  0
 20 11  2  0
 21 20  1  0
 22 26  1  0
  4 23  1  6
 24 16  1  0
 25 16  2  0
 26 24  1  0
 27 22  2  0
 28 21  2  0
  2 29  1  1
  3 30  1  1
 10 31  1  1
 18 32  1  6
 13 33  1  0
 13 34  1  0
 35 22  1  0
  6 15  1  1
 14 13  1  0
  4  7  1  0
 18  5  1  0
 21 19  1  0
M  END
> <Library>
Bioactives

> <Batch>
2012

> <PLATE>
B1002L2012M01

> <WELL>
L11

> <EOS>
EOS100574

> <CCMF_source_vial_barcode>
LV2001695286

> <concentration_mM>
10

> <volume_ul>
30

$$$$
EOS100575
  SciTegic04282016392D

 31 35  0  0  0  0            999 V2000
   24.8982   -5.8013    0.0000 N   0  0
   24.8982   -7.1534    0.0000 C   0  0
   24.1062   -6.8958    0.0000 C   0  0
   25.3875   -6.4773    0.0000 C   0  0
   24.1062   -6.0652    0.0000 C   0  0
   26.4048  -11.9244    0.0000 C   0  0
   25.6193  -11.6733    0.0000 N   0  0
   25.1493   -5.0221    0.0000 C   0  0
   26.4048  -12.7550    0.0000 N   0  0
   25.6580   -9.4906    0.0000 N   0  0
   23.3915   -5.6467    0.0000 C   0  0
   25.1558   -7.9260    0.0000 C   0  0
   23.3915   -7.3079    0.0000 C   0  0
   27.0680  -11.4415    0.0000 O   0  0
   25.3617  -10.8941    0.0000 C   0  0
   24.5956   -4.4105    0.0000 C   0  0
   25.9477   -4.8483    0.0000 C   0  0
   24.5956   -8.5441    0.0000 C   0  0
   25.9605   -8.0998    0.0000 C   0  0
   25.9091  -10.2825    0.0000 C   0  0
   24.8595   -9.3167    0.0000 C   0  0
   26.2181   -8.8853    0.0000 C   0  0
   22.6768   -6.8958    0.0000 C   0  0
   22.6768   -6.0652    0.0000 C   0  0
   25.6580   -3.4575    0.0000 C   0  0
   25.6193  -13.0061    0.0000 C   0  0
   26.2116   -4.0628    0.0000 C   0  0
   24.8467   -3.6314    0.0000 C   0  0
   25.1364  -12.3428    0.0000 C   0  0
   21.9621   -7.3079    0.0000 Cl  0  0
   25.9091   -2.6721    0.0000 F   0  0
  2  4  2  0
  3  5  1  0
  4  1  1  0
  5  1  1  0
  6  7  1  0
  7 15  1  0
  8  1  1  0
  9  6  1  0
 10 22  1  0
 11  5  2  0
 12  2  1  0
 13  3  2  0
 14  6  2  0
 15 20  1  0
 16  8  2  0
 17  8  1  0
 18 12  1  0
 19 12  1  0
 20 10  1  0
 21 18  1  0
 22 19  1  0
 23 24  2  0
 24 11  1  0
 25 27  1  0
 26 29  1  0
 27 17  2  0
 28 16  1  0
 29  7  1  0
 30 23  1  0
 31 25  1  0
  3  2  1  0
 28 25  2  0
 13 23  1  0
 21 10  1  0
 26  9  1  0
M  END
> <Library>
Bioactives

> <Batch>
2012

> <PLATE>
B1002L2012M01

> <WELL>
N11

> <EOS>
EOS100575

> <CCMF_source_vial_barcode>
LV2001696499

> <concentration_mM>
10

> <volume_ul>
30

$$$$
EOS100576
  SciTegic04282016392D

 27 29  0  0  0  0            999 V2000
   10.0026    0.4125    0.0000 C   0  0
    9.2881    0.0000    0.0000 O   0  0
    8.5736    0.4125    0.0000 C   0  0
    7.8592    0.0000    0.0000 C   0  0
    7.1447    0.4125    0.0000 C   0  0
    7.1447    1.2375    0.0000 C   0  0
    7.8592    1.6500    0.0000 C   0  0
    8.5736    1.2375    0.0000 C   0  0
    6.4302    1.6500    0.0000 C   0  0
    5.7158    1.2375    0.0000 O   0  0
    5.0013    1.6500    0.0000 C   0  0
    4.2868    1.2375    0.0000 C   0  0
    3.5724    1.6500    0.0000 C   0  0
    3.5724    2.4750    0.0000 C   0  0
    4.2868    2.8875    0.0000 C   0  0
    5.0013    2.4750    0.0000 C   0  0
    2.8579    2.8875    0.0000 C   0  0
    2.1434    2.4750    0.0000 C   0  0
    2.1434    1.6500    0.0000 C   0  0
    1.4290    1.2375    0.0000 N   0  0
    0.7144    1.6500    0.0000 C   0  0
    0.7144    2.4750    0.0000 N   0  0
    1.4290    2.8875    0.0000 C   0  0
    1.4290    3.7125    0.0000 N   0  0
    0.0000    1.2375    0.0000 N   0  0
    4.2868    0.4125    0.0000 O   0  0
    5.0013    0.0000    0.0000 C   0  0
  2  1  1  0
  3  2  1  0
  4  3  2  0
  8  3  1  0
  5  4  1  0
  6  5  2  0
  7  6  1  0
  9  6  1  0
  8  7  2  0
 10  9  1  0
 11 10  1  0
 12 11  2  0
 16 11  1  0
 13 12  1  0
 26 12  1  0
 14 13  2  0
 15 14  1  0
 17 14  1  0
 16 15  2  0
 18 17  1  0
 19 18  2  0
 23 18  1  0
 20 19  1  0
 21 20  2  0
 22 21  1  0
 25 21  1  0
 23 22  2  0
 24 23  1  0
 27 26  1  0
M  END
> <Library>
Bioactives

> <Batch>
2012

> <PLATE>
B1002L2012M01

> <WELL>
P11

> <EOS>
EOS100576

> <CCMF_source_vial_barcode>
LV2001695274

> <concentration_mM>
10

> <volume_ul>
30

$$$$
EOS100577
  SciTegic04282016392D

 31 35  0  0  0  0            999 V2000
    0.0000    4.6044    0.0000 C   0  0
    0.0000    3.7793    0.0000 C   0  0
    0.7145    3.3668    0.0000 C   0  0
    1.4290    3.7793    0.0000 C   0  0
    1.4290    4.6044    0.0000 C   0  0
    0.7145    5.0169    0.0000 C   0  0
    2.1435    3.3668    0.0000 N   0  0
    2.8579    3.7793    0.0000 C   0  0
    2.8579    4.6044    0.0000 N   0  0
    2.1435    5.0169    0.0000 C   0  0
    0.7145    5.8391    0.0000 F   0  0
    2.1435    5.8391    0.0000 O   0  0
    3.5700    5.0155    0.0000 C   0  0
    3.5700    3.3683    0.0000 C   0  0  1  0  0  0
    3.5700    2.5432    0.0000 N   0  0
    4.2844    2.1307    0.0000 C   0  0
    4.2844    1.3057    0.0000 C   0  0
    4.9989    0.8932    0.0000 C   0  0
    5.7134    1.3057    0.0000 N   0  0
    5.7134    2.1307    0.0000 C   0  0
    4.9989    2.5432    0.0000 N   0  0
    3.6713    0.7537    0.0000 N   0  0
    4.0069    0.0000    0.0000 C   0  0
    4.8274    0.0862    0.0000 N   0  0
    4.2844    4.6030    0.0000 C   0  0
    4.9989    5.0155    0.0000 C   0  0
    4.9989    5.8405    0.0000 C   0  0
    4.2844    6.2530    0.0000 C   0  0
    3.5700    5.8405    0.0000 C   0  0
    4.2820    3.7793    0.0000 C   0  0
    4.9964    3.3668    0.0000 C   0  0
  1  2  2  0
  2  3  1  0
  3  4  2  0
  4  5  1  0
  5  6  2  0
  6  1  1  0
  4  7  1  0
  7  8  2  0
  8  9  1  0
  9 10  1  0
 10  5  1  0
  6 11  1  0
 10 12  2  0
  9 13  1  0
 14  8  1  0
 14 15  1  6
 15 16  1  0
 16 17  2  0
 17 18  1  0
 18 19  2  0
 19 20  1  0
 20 21  2  0
 21 16  1  0
 17 22  1  0
 22 23  2  0
 23 24  1  0
 24 18  1  0
 13 25  2  0
 25 26  1  0
 26 27  2  0
 27 28  1  0
 28 29  2  0
 29 13  1  0
 14 30  1  0
 30 31  1  0
M  END
> <Library>
Bioactives

> <Batch>
2012

> <PLATE>
B1002L2012M01

> <WELL>
B13

> <EOS>
EOS100577

> <CCMF_source_vial_barcode>
LV2001695888

> <concentration_mM>
10

> <volume_ul>
30

$$$$
EOS100578
  SciTegic04282016392D

 32 36  0  0  0  0            999 V2000
   -1.8562    1.7089    0.0000 C   0  0
   -2.5707    1.2964    0.0000 C   0  0
   -2.5707    0.4714    0.0000 C   0  0
   -1.8562    0.0589    0.0000 C   0  0
   -1.1418    0.4714    0.0000 C   0  0
   -1.1418    1.2964    0.0000 C   0  0
   -0.4273    1.7089    0.0000 N   0  0
   -0.4273    0.0589    0.0000 C   0  0
    0.2871    0.4714    0.0000 N   0  0
    0.2871    1.2964    0.0000 C   0  0
   -3.2852    0.0589    0.0000 N   0  0
   -3.9997    0.4714    0.0000 C   0  0
   -0.4273   -0.7661    0.0000 N   0  0
    0.2872   -1.1786    0.0000 C   0  0
    0.2872   -2.0036    0.0000 C   0  0
    1.0016   -2.4161    0.0000 C   0  0
    1.7161   -2.0036    0.0000 C   0  0
    1.7161   -1.1786    0.0000 C   0  0
    1.0016   -0.7661    0.0000 C   0  0
   -4.0859    1.2919    0.0000 O   0  0
   -4.8928    1.4634    0.0000 C   0  0
   -5.3053    0.7490    0.0000 C   0  0  2  0  0  0
   -4.7533    0.1359    0.0000 N   0  0
    1.0016   -3.2411    0.0000 Cl  0  0
    2.4306   -2.4161    0.0000 O   0  0
    2.4306   -3.2411    0.0000 C   0  0
    3.1451   -3.6536    0.0000 C   0  0
    3.2313   -4.4741    0.0000 S   0  0
    4.0383   -4.6456    0.0000 C   0  0
    4.4508   -3.9311    0.0000 C   0  0
    3.8988   -3.3181    0.0000 N   0  0
   -6.1258    0.6627    0.0000 C   0  0
  1  2  1  0
  1  6  2  0
  2  3  2  0
  3  4  1  0
  4  5  2  0
  7  6  1  0
  6  5  1  0
  5  8  1  0
  7 10  2  0
  8  9  2  0
  9 10  1  0
  3 11  1  0
 11 12  1  0
  8 13  1  0
 13 14  1  0
 14 15  2  0
 14 19  1  0
 15 16  1  0
 16 17  2  0
 17 18  1  0
 18 19  2  0
 12 20  1  0
 12 23  2  0
 20 21  1  0
 22 21  1  0
 22 23  1  0
 16 24  1  0
 17 25  1  0
 25 26  1  0
 26 27  1  0
 27 28  1  0
 27 31  2  0
 28 29  1  0
 29 30  2  0
 30 31  1  0
 22 32  1  6
M  END
> <Library>
Bioactives

> <Batch>
2012

> <PLATE>
B1002L2012M01

> <WELL>
D13

> <EOS>
EOS100578

> <CCMF_source_vial_barcode>
LV2001695258

> <concentration_mM>
10

> <volume_ul>
30

$$$$
EOS100579
  SciTegic04282016392D

 29 33  0  0  0  0            999 V2000
   -2.3678   -0.4954    0.0000 C   0  0
   -2.3678   -1.3204    0.0000 C   0  0
   -1.6533   -1.7329    0.0000 C   0  0
   -0.9389   -1.3204    0.0000 C   0  0
   -0.9389   -0.4954    0.0000 C   0  0
   -1.6533   -0.0829    0.0000 C   0  0
   -0.2244   -1.7329    0.0000 N   0  0
    0.4900   -1.3204    0.0000 C   0  0
    0.4900   -0.4954    0.0000 C   0  0
   -0.2244   -0.0829    0.0000 C   0  0
    1.2045   -0.0829    0.0000 C   0  0
    1.9190   -0.4954    0.0000 N   0  0
    1.9190   -1.3204    0.0000 C   0  0
    2.6334   -1.7329    0.0000 C   0  0
    3.3479   -1.3204    0.0000 C   0  0
    3.3479   -0.4954    0.0000 C   0  0
    2.6334   -0.0829    0.0000 C   0  0
    4.0623   -1.7329    0.0000 C   0  0  2  0  0  0
    4.7768   -1.3204    0.0000 C   0  0
    4.7768   -0.4954    0.0000 O   0  0
    4.0623   -0.0829    0.0000 C   0  0
   -3.0823   -0.0829    0.0000 O   0  0
    2.6334    0.7421    0.0000 O   0  0
    5.4913   -1.7329    0.0000 O   0  0
    3.4790   -2.3162    0.0000 C   0  0
    4.6458   -2.3162    0.0000 O   0  0
    2.6822   -2.1027    0.0000 C   0  0
   -0.2244    0.7421    0.0000 C   0  0
   -0.9389    1.1546    0.0000 C   0  0
  1  2  2  0
  2  3  1  0
  3  4  2  0
  4  5  1  0
  5  6  2  0
  6  1  1  0
  4  7  1  0
  7  8  2  0
  8  9  1  0
  9 10  2  0
 10  5  1  0
  9 11  1  0
 11 12  1  0
 12 13  1  0
  8 13  1  0
 13 14  2  0
 14 15  1  0
 15 16  2  0
 16 17  1  0
 17 12  1  0
 18 15  1  0
 18 19  1  0
 19 20  1  0
 20 21  1  0
 21 16  1  0
  1 22  1  0
 17 23  2  0
 19 24  2  0
 18 26  1  1
 18 25  1  6
 25 27  1  0
 10 28  1  0
 28 29  1  0
M  END
> <Library>
Bioactives

> <Batch>
2012

> <PLATE>
B1002L2012M01

> <WELL>
F13

> <EOS>
EOS100579

> <CCMF_source_vial_barcode>
LV2001699923

> <concentration_mM>
10

> <volume_ul>
30

$$$$
EOS100580
  SciTegic04282016392D

 16 17  0  0  0  0            999 V2000
    3.1797   -2.0611    0.0000 C   0  0
    3.1785   -2.8878    0.0000 C   0  0
    3.8929   -3.3004    0.0000 C   0  0
    3.8911   -1.6486    0.0000 C   0  0
    4.6059   -2.0574    0.0000 C   0  0
    4.6108   -2.8833    0.0000 C   0  0
    5.3978   -3.1339    0.0000 N   0  0
    5.8793   -2.4629    0.0000 C   0  0
    5.3899   -1.7977    0.0000 S   0  0
    6.7038   -2.4580    0.0000 S   0  0
    7.1202   -3.1696    0.0000 O   0  0
    7.1118   -1.7417    0.0000 O   0  0
    7.5281   -2.4566    0.0000 N   0  0
    2.4656   -1.6490    0.0000 O   0  0
    2.4654   -0.8245    0.0000 C   0  0
    1.7514   -0.4125    0.0000 C   0  0
  6  7  1  0
  7  8  2  0
  8  9  1  0
  9  5  1  0
  4  1  1  0
  8 10  1  0
  5  6  1  0
 10 11  2  0
 10 12  2  0
  2  3  1  0
 10 13  1  0
  3  6  2  0
  1 14  1  0
  1  2  2  0
 14 15  1  0
  5  4  2  0
 15 16  1  0
M  END
> <Library>
Bioactives

> <Batch>
2012

> <PLATE>
B1002L2012M01

> <WELL>
H13

> <EOS>
EOS100580

> <CCMF_source_vial_barcode>
LV2001695301

> <concentration_mM>
10

> <volume_ul>
30

$$$$
EOS100581
  SciTegic04282016392D

 34 39  0  0  0  0            999 V2000
    6.0359   -1.2468    0.0000 C   0  0
    7.2108   -1.9341    0.0000 N   0  0
    7.9663   -1.6030    0.0000 C   0  0
    8.5149   -2.2192    0.0000 C   0  0
    8.0983   -2.9312    0.0000 C   0  0
    7.2923   -2.7550    0.0000 C   0  0  2  0  0  0
    7.2013   -3.5750    0.0000 C   0  0
    6.4674   -2.7550    0.0000 C   0  0
    6.0591   -2.0335    0.0000 O   0  0
    6.0508   -3.4576    0.0000 N   0  0
    5.2258   -3.4576    0.0000 C   0  0
    4.8092   -4.1650    0.0000 C   0  0
    3.9843   -4.1650    0.0000 C   0  0
    3.5760   -3.4481    0.0000 C   0  0
    2.7510   -3.4481    0.0000 F   0  0
    3.9926   -2.7360    0.0000 N   0  0
    4.8175   -2.7360    0.0000 C   0  0
    5.3191   -1.6551    0.0000 N   0  0
    4.6118   -1.2385    0.0000 N   0  0
    4.6118   -0.4136    0.0000 C   0  0
    3.8287   -0.1541    0.0000 C   0  0
    3.3399   -0.8187    0.0000 C   0  0
    3.8210   -1.4889    0.0000 C   0  0
    5.3286   -0.0052    0.0000 C   0  0
    5.3286    0.8197    0.0000 N   0  0
    6.0501    1.2280    0.0000 C   0  0
    6.1411    2.0480    0.0000 N   0  0
    6.9491    2.2148    0.0000 N   0  0
    7.3574    1.4981    0.0000 C   0  0
    8.1774    1.4071    0.0000 C   0  0
    8.9328    1.7383    0.0000 C   0  0
    8.8419    0.9183    0.0000 C   0  0
    6.8018    0.8882    0.0000 C   0  0
    6.0359   -0.4217    0.0000 N   0  0
  2  1  1  0
 18  1  2  0
 34  1  1  0
  3  2  1  0
  6  2  1  0
  4  3  1  0
  5  4  1  0
  6  5  1  0
  6  7  1  6
  6  8  1  1
  9  8  2  0
 10  8  1  0
 11 10  1  0
 12 11  2  0
 17 11  1  0
 13 12  1  0
 14 13  2  0
 15 14  1  0
 14 16  1  0
 16 17  2  0
 19 18  1  0
 20 19  1  0
 23 19  1  0
 21 20  2  0
 20 24  1  0
 22 21  1  0
 22 23  2  0
 25 24  1  0
 24 34  2  0
 26 25  1  0
 27 26  2  0
 33 26  1  0
 28 27  1  0
 28 29  1  0
 30 29  1  0
 29 33  2  0
 31 30  1  0
 32 30  1  0
 32 31  1  0
M  END
> <Library>
Bioactives

> <Batch>
2012

> <PLATE>
B1002L2012M01

> <WELL>
J13

> <EOS>
EOS100581

> <CCMF_source_vial_barcode>
LV2001695297

> <concentration_mM>
10

> <volume_ul>
30

$$$$
EOS100582
  SciTegic04282016392D

 18 20  0  0  1  0            999 V2000
    2.3645    1.0928    0.0000 N   0  0
    4.5214    2.3588    0.0000 N   0  0
    3.0790   -0.1447    0.0000 C   0  0
    2.3645    0.2678    0.0000 C   0  0
    3.7934    0.2678    0.0000 C   0  0
    3.0790    1.5053    0.0000 C   0  0
    3.7934    1.0928    0.0000 C   0  0
    3.0790   -0.9697    0.0000 C   0  0
    4.5309    1.5339    0.0000 C   0  0
    4.5309   -0.1733    0.0000 C   0  0
    1.6500    1.5053    0.0000 C   0  0
    5.2784    1.1100    0.0000 C   0  0
    3.7934   -1.3822    0.0000 C   0  0
    2.3645   -1.3822    0.0000 C   0  0
    5.2784    0.2506    0.0000 C   0  0
    3.7934   -2.2072    0.0000 C   0  0
    2.3645   -2.2072    0.0000 C   0  0
    3.0790   -2.6197    0.0000 C   0  0
  1  4  1  0
  1  6  1  0
  1 11  1  0
  2  9  1  0
  3  4  1  0
  3  5  1  0
  3  8  1  0
  5  7  2  0
  5 10  1  0
  6  7  1  0
  7  9  1  0
  8 13  2  0
  8 14  1  0
  9 12  2  0
 10 15  2  0
 12 15  1  0
 13 16  1  0
 14 17  2  0
 16 18  2  0
 17 18  1  0
M  END
> <Library>
Bioactives

> <Batch>
2012

> <PLATE>
B1002L2012M01

> <WELL>
L13

> <EOS>
EOS100582

> <CCMF_source_vial_barcode>
LV2001696489

> <concentration_mM>
10

> <volume_ul>
30

$$$$
EOS100583
  SciTegic04282016392D

 23 26  0  0  1  0            999 V2000
    7.0848   -5.3824    0.0000 C   0  0  1  0  0  0
    7.0764   -6.2002    0.0000 C   0  0  2  0  0  0
    4.9318   -6.6008    0.0000 C   0  0  1  0  0  0
    7.8650   -5.1362    0.0000 C   0  0
    4.9235   -7.4269    0.0000 C   0  0
    5.6452   -6.1877    0.0000 C   0  0  2  0  0  0
    6.3504   -6.6091    0.0000 C   0  0  1  0  0  0
    8.3407   -5.7997    0.0000 C   0  0
    7.8525   -6.4631    0.0000 C   0  0
    4.2183   -7.8358    0.0000 C   0  0
    6.3712   -4.9610    0.0000 C   0  0
    5.6494   -5.3615    0.0000 C   0  0
    4.2183   -6.1835    0.0000 C   0  0
    6.3504   -7.4269    0.0000 C   0  0
    5.6369   -7.8400    0.0000 C   0  0
    3.5049   -7.4269    0.0000 C   0  0
    8.1279   -4.3476    0.0000 C   0  0
    9.1668   -5.8122    0.0000 O   0  0
    2.7913   -7.8400    0.0000 O   0  0
    3.5049   -6.6008    0.0000 C   0  0
    6.9971   -4.4228    0.0000 C   0  0
    4.8859   -5.6870    0.0000 C   0  0
    8.9414   -4.1850    0.0000 C   0  0
  2  1  1  0
  6  3  1  0
  1  4  1  0
  5 15  1  0
  7  6  1  0
  2  7  1  0
  8  4  1  0
  2  9  1  1
 10  5  2  0
  1 11  1  0
 12 11  1  0
  3 13  1  0
  7 14  1  6
 15 14  1  0
 16 10  1  0
 17  4  2  0
 18  8  2  0
 19 16  2  0
 20 13  1  0
  1 21  1  1
  3 22  1  1
 23 17  1  0
  9  8  1  0
  6 12  1  1
  3  5  1  0
 20 16  1  0
M  END
> <Library>
Bioactives

> <Batch>
2012

> <PLATE>
B1002L2012M01

> <WELL>
N13

> <EOS>
EOS100583

> <CCMF_source_vial_barcode>
LV2001695829

> <concentration_mM>
10

> <volume_ul>
30

$$$$
EOS100584
  SciTegic04282016392D

 17 19  0  0  0  0            999 V2000
    3.4059   -1.5077    0.0000 C   0  0
    2.9198   -2.1724    0.0000 N   0  0
    2.9198   -0.8405    0.0000 C   0  0
    4.2232   -1.4276    0.0000 C   0  0
    2.1336   -1.0939    0.0000 C   0  0
    2.1336   -1.9189    0.0000 C   0  0
    4.7042   -2.0948    0.0000 C   0  0
    1.4198   -0.6853    0.0000 C   0  0
    5.5318   -2.0120    0.0000 O   0  0
    1.4198   -2.3301    0.0000 C   0  0
    4.3706   -2.8473    0.0000 N   0  0
    0.7138   -1.0939    0.0000 C   0  0
    3.2585   -0.0802    0.0000 C   0  0
    4.5697   -0.6672    0.0000 C   0  0
    0.7138   -1.9241    0.0000 C   0  0
    0.0000   -0.6853    0.0000 Cl  0  0
    4.0809    0.0000    0.0000 C   0  0
  2  1  1  0
  3  1  2  0
  4  1  1  0
  5  3  1  0
  6  2  1  0
  7  4  1  0
  8  5  2  0
  9  7  2  0
 10  6  2  0
 11  7  1  0
 12  8  1  0
 13  3  1  0
 14  4  1  0
 15 10  1  0
 16 12  1  0
 17 14  1  0
  6  5  1  0
 17 13  1  0
 15 12  2  0
M  END
> <Library>
Bioactives

> <Batch>
2012

> <PLATE>
B1002L2012M01

> <WELL>
P13

> <EOS>
EOS100584

> <CCMF_source_vial_barcode>
LV2001695831

> <concentration_mM>
10

> <volume_ul>
30

$$$$
EOS100585
  SciTegic04282016392D

 21 22  0  0  0  0            999 V2000
    3.4833   -0.1250    0.0000 N   0  3
   -1.0500   -0.8542    0.0000 C   0  0
   -0.2250   -0.8542    0.0000 C   0  0
    0.1875   -0.1375    0.0000 N   0  0
    2.6583   -0.1292    0.0000 C   0  0
    2.2458   -0.8458    0.0000 C   0  0
    1.0125   -0.1333    0.0000 C   0  0
    1.4208   -0.8458    0.0000 C   0  0
   -1.4583   -1.5667    0.0000 C   0  0
    3.9000   -0.8375    0.0000 O   0  5
   -1.4583   -0.1458    0.0000 C   0  0
    3.8958    0.5917    0.0000 O   0  0
    0.1917   -1.5667    0.0000 O   0  0
    2.2375    0.5875    0.0000 C   0  0
    1.4167    0.5792    0.0000 C   0  0
   -2.2833   -1.5708    0.0000 C   0  0
   -2.2833   -0.1458    0.0000 C   0  0
    1.0083   -1.5625    0.0000 Cl  0  0
   -2.6958   -0.8583    0.0000 C   0  0
   -1.0417   -2.2792    0.0000 O   0  0
   -2.6958    0.5708    0.0000 Cl  0  0
  2  3  1  0
  3  4  1  0
  4  7  1  0
  5  1  1  0
  6  5  2  0
  7 15  1  0
  8  6  1  0
  9  2  2  0
 10  1  1  0
 11  2  1  0
 12  1  2  0
 13  3  2  0
 14  5  1  0
 15 14  2  0
 16  9  1  0
 17 11  2  0
 18  8  1  0
 19 17  1  0
 20  9  1  0
 21 17  1  0
  8  7  2  0
 16 19  2  0
M  CHG  2   1   1  10  -1
M  END
> <Library>
Bioactives

> <Batch>
2012

> <PLATE>
B1002L2012M01

> <WELL>
B15

> <EOS>
EOS100585

> <CCMF_source_vial_barcode>
LV2001695309

> <concentration_mM>
10

> <volume_ul>
30

$$$$
EOS100586
  SciTegic04282016392D

 34 35  0  0  0  0            999 V2000
   -3.3460    1.5064    0.0000 C   0  0
    1.6146   -1.3549    0.0000 C   0  0
   -3.3460    2.3375    0.0000 N   0  0
    1.6146   -2.1817    0.0000 N   0  0
    0.9004   -2.6016    0.0000 C   0  0
   -2.6492    2.7530    0.0000 C   0  0
   -4.0646    1.1038    0.0000 N   0  0
    2.3375   -0.9350    0.0000 N   0  0
   -2.6492    1.1038    0.0000 N   0  0
    0.9004   -0.9523    0.0000 N   0  0
   -2.6492    3.5668    0.0000 N   0  0
    0.9004   -3.4153    0.0000 N   0  0
   -1.9219    2.3375    0.0000 N   0  0
    0.1862   -2.1860    0.0000 N   0  0
   -4.0646    0.2727    0.0000 C   0  0
    2.3375   -0.1212    0.0000 C   0  0
   -4.0646   -1.3549    0.0000 C   0  0
    2.3375    1.5280    0.0000 C   0  0
   -4.0646   -2.1860    0.0000 Cl  0  0
    2.3375    2.3591    0.0000 Cl  0  0
    3.0647    0.3073    0.0000 C   0  0
   -4.7789   -0.1428    0.0000 C   0  0
    1.6406    0.2943    0.0000 C   0  0
   -3.3460   -0.1428    0.0000 C   0  0
   -4.7789   -0.9740    0.0000 C   0  0
    1.6406    1.1254    0.0000 C   0  0
   -3.3460   -0.9523    0.0000 C   0  0
    3.0647    1.1428    0.0000 C   0  0
   -1.9219    1.5064    0.0000 C   0  0
    0.1862   -1.3549    0.0000 C   0  0
   -0.5151   -0.9523    0.0000 C   0  0
   -1.2293    1.1038    0.0000 C   0  0
   -1.2293    0.2727    0.0000 C   0  0
   -0.5151   -0.1428    0.0000 C   0  0
  2  4  1  0
  3  1  1  0
  4  5  1  0
  5 14  1  0
  6  3  1  0
  7  1  1  0
  8  2  1  0
  9  1  2  0
 10  2  2  0
 11  6  2  0
 12  5  2  0
 13  6  1  0
 14 30  1  0
 15  7  1  0
 16  8  1  0
 17 27  1  0
 18 26  1  0
 19 17  1  0
 20 18  1  0
 21 16  2  0
 22 15  2  0
 23 16  1  0
 24 15  1  0
 25 22  1  0
 26 23  2  0
 27 24  2  0
 28 21  1  0
 29 13  1  0
 30 31  1  0
 31 34  1  0
 32 29  1  0
 33 32  1  0
 34 33  1  0
 25 17  2  0
 28 18  2  0
M  END
> <Library>
Bioactives

> <Batch>
2012

> <PLATE>
B1002L2012M01

> <WELL>
D15

> <EOS>
EOS100586

> <CCMF_source_vial_barcode>
LV2001695881

> <concentration_mM>
10

> <volume_ul>
30

$$$$
EOS100587
  SciTegic04282016392D

 44 48  0  0  0  0            999 V2000
    0.9606    1.1957    0.0000 C   0  0
    0.1536    1.3672    0.0000 N   0  0
   -0.1014    2.1518    0.0000 C   0  0
   -0.3984    0.7541    0.0000 C   0  0
   -0.1435   -0.0305    0.0000 C   0  0
   -0.6284   -0.6979    0.0000 C   0  0
   -0.1435   -1.3654    0.0000 S   0  0
    0.6411   -1.1104    0.0000 C   0  0
    0.6411   -0.2854    0.0000 C   0  0
    1.3556    0.1271    0.0000 C   0  0
    1.3556    0.9521    0.0000 O   0  0
    2.0701   -0.2854    0.0000 N   0  0
    2.0701   -1.1104    0.0000 C   0  0
    2.7845   -1.5229    0.0000 O   0  0
    1.3556   -1.5229    0.0000 N   0  0
    1.3556   -2.3479    0.0000 C   0  0
    2.0701   -2.7604    0.0000 C   0  0
    2.7845   -2.3479    0.0000 C   0  0
    3.4990   -2.7604    0.0000 C   0  0
    3.4990   -3.5854    0.0000 C   0  0
    2.7845   -3.9979    0.0000 C   0  0
    2.0701   -3.5854    0.0000 C   0  0
    1.3556   -3.9979    0.0000 F   0  0
    3.2694   -1.6805    0.0000 F   0  0
    2.7845    0.1271    0.0000 C   0  0
    3.4990   -0.2854    0.0000 N   0  0
    4.2135    0.1271    0.0000 N   0  0
    4.2135    0.9521    0.0000 C   0  0
    3.4990    1.3646    0.0000 C   0  0
    2.7845    0.9521    0.0000 C   0  0
    4.9279    1.3646    0.0000 O   0  0
    4.9279    2.1896    0.0000 C   0  0
   -1.4534   -0.6979    0.0000 C   0  0
   -1.8659   -1.4124    0.0000 C   0  0
   -2.6909   -1.4124    0.0000 C   0  0
   -3.1034   -0.6979    0.0000 C   0  0
   -2.6909    0.0165    0.0000 C   0  0
   -1.8659    0.0165    0.0000 C   0  0
   -3.9284   -0.6979    0.0000 N   0  0
   -4.3409    0.0165    0.0000 C   0  0
   -3.9284    0.7310    0.0000 O   0  0
   -5.1659    0.0165    0.0000 N   0  0
   -5.5784    0.7310    0.0000 O   0  0
   -6.4034    0.7310    0.0000 C   0  0
  1  2  1  0
  2  3  1  0
  2  4  1  0
  4  5  1  0
  5  6  2  0
  6  7  1  0
  7  8  1  0
  8  9  2  0
  5  9  1  0
  9 10  1  0
 10 11  2  0
 10 12  1  0
 12 13  1  0
 13 14  2  0
 13 15  1  0
  8 15  1  0
 15 16  1  0
 16 17  1  0
 17 18  2  0
 18 19  1  0
 19 20  2  0
 20 21  1  0
 21 22  2  0
 17 22  1  0
 22 23  1  0
 18 24  1  0
 12 25  1  0
 25 26  2  0
 26 27  1  0
 27 28  2  0
 28 29  1  0
 29 30  2  0
 25 30  1  0
 28 31  1  0
 31 32  1  0
  6 33  1  0
 33 34  2  0
 34 35  1  0
 35 36  2  0
 36 37  1  0
 37 38  2  0
 33 38  1  0
 36 39  1  0
 39 40  1  0
 40 41  2  0
 40 42  1  0
 42 43  1  0
 43 44  1  0
M  END
> <Library>
Bioactives

> <Batch>
2012

> <PLATE>
B1002L2012M01

> <WELL>
F15

> <EOS>
EOS100587

> <CCMF_source_vial_barcode>
LV2001695869

> <concentration_mM>
10

> <volume_ul>
30

$$$$
EOS100588
  SciTegic04282016392D

 62 63  0  0  0  0            999 V2000
    8.6111   -2.6961    0.0000 C   0  0
    9.3743   -2.6961    0.0000 C   0  0
    8.1659   -2.0281    0.0000 C   0  0
    7.4026   -2.0281    0.0000 C   0  0
    6.9574   -2.6961    0.0000 C   0  0
    7.4026   -3.4275    0.0000 C   0  0
    8.1659   -3.4275    0.0000 C   0  0
    9.8195   -3.4275    0.0000 C   0  0
   10.6145   -3.4275    0.0000 C   0  0
   10.9961   -2.6961    0.0000 C   0  0
   10.6145   -2.0281    0.0000 C   0  0
    9.8195   -2.0281    0.0000 C   0  0
   11.8230   -2.6961    0.0000 N   0  0
    5.7170   -3.5229    0.0000 N   0  0
    4.8902   -3.5229    0.0000 C   0  0
   13.5085   -4.2543    0.0000 C   0  0
   13.1268   -3.5229    0.0000 C   0  0
   14.3353   -4.2543    0.0000 C   0  0
   14.7169   -3.5229    0.0000 C   0  0
   14.3353   -2.8551    0.0000 C   0  0
   13.5085   -2.8551    0.0000 C   0  0
   14.7169   -4.9540    0.0000 C   0  0
   15.5438   -4.9540    0.0000 C   0  0
   15.9572   -4.2543    0.0000 C   0  0
   15.5438   -3.5229    0.0000 C   0  0
   13.1268   -4.9540    0.0000 O   0  0
   14.3353   -5.6218    0.0000 N   0  0
   15.9572   -5.6218    0.0000 S   0  0
   16.3072   -6.3532    0.0000 O   0  5
   16.6570   -5.2402    0.0000 O   0  0
   15.2257   -6.0670    0.0000 O   0  0
   15.9572   -2.8551    0.0000 S   0  0
   16.3072   -2.1554    0.0000 O   0  5
   16.6570   -3.2685    0.0000 O   0  0
   15.2257   -2.4735    0.0000 O   0  0
    4.5086   -2.8551    0.0000 C   0  0
    3.6817   -2.8551    0.0000 C   0  0
    3.3001   -3.5229    0.0000 C   0  0
    3.6817   -4.2543    0.0000 C   0  0
    4.5086   -4.2543    0.0000 C   0  0
    2.4732   -3.5229    0.0000 C   0  0
    2.0598   -4.2543    0.0000 C   0  0
    2.4732   -4.9858    0.0000 C   0  0
    3.3001   -4.9858    0.0000 C   0  0
    4.8902   -4.9540    0.0000 O   0  0
    3.6817   -5.6218    0.0000 N   0  0
    2.0598   -2.8551    0.0000 S   0  0
    1.6782   -2.1554    0.0000 O   0  5
    2.7595   -2.4735    0.0000 O   0  0
    1.3920   -3.2685    0.0000 O   0  0
    2.0598   -5.6218    0.0000 S   0  0
    1.6782   -6.3532    0.0000 O   0  5
    2.7595   -6.0670    0.0000 O   0  0
    1.3920   -5.2402    0.0000 O   0  0
   10.9961   -4.1272    0.0000 C   0  0
    6.9574   -4.1272    0.0000 C   0  0
    6.1940   -2.6961    0.0000 N   0  0
   12.3000   -3.5229    0.0000 N   0  0
   15.9572   -7.0529    0.0000 Na  0  3
   15.9572   -1.4874    0.0000 Na  0  3
    2.6641   -1.3920    0.0000 Na  0  3
    2.8549   -6.9257    0.0000 Na  0  3
  1  2  1  0
  1  3  2  0
  3  4  1  0
  4  5  2  0
  5  6  1  0
  6  7  2  0
  1  7  1  0
  2  8  2  0
  8  9  1  0
  9 10  2  0
 10 11  1  0
 11 12  2  0
  2 12  1  0
 10 13  1  0
 14 15  1  0
 16 17  1  0
 16 18  2  0
 18 19  1  0
 19 20  2  0
 20 21  1  0
 17 21  2  0
 18 22  1  0
 22 23  2  0
 23 24  1  0
 24 25  2  0
 19 25  1  0
 16 26  1  0
 22 27  1  0
 23 28  1  0
 28 29  1  0
 28 30  2  0
 28 31  2  0
 25 32  1  0
 32 33  1  0
 32 34  2  0
 32 35  2  0
 15 36  2  0
 36 37  1  0
 37 38  2  0
 38 39  1  0
 39 40  2  0
 15 40  1  0
 38 41  1  0
 41 42  2  0
 42 43  1  0
 43 44  2  0
 39 44  1  0
 40 45  1  0
 44 46  1  0
 41 47  1  0
 47 48  1  0
 47 49  2  0
 47 50  2  0
 43 51  1  0
 51 52  1  0
 51 53  2  0
 51 54  2  0
  9 55  1  0
  6 56  1  0
 14 57  2  0
  5 57  1  0
 13 58  2  0
 17 58  1  0
M  CHG  8  29  -1  33  -1  48  -1  52  -1  59   1  60   1  61   1  62   1
M  END
> <Library>
Bioactives

> <Batch>
2012

> <PLATE>
B1002L2012M01

> <WELL>
H15

> <EOS>
EOS100588

> <CCMF_source_vial_barcode>
LV2001695250

> <concentration_mM>
10

> <volume_ul>
30

$$$$
EOS100589
  SciTegic04282016392D

 35 38  0  0  0  0            999 V2000
    1.7751   -6.3432    0.0000 O   0  0
    0.9681   -6.5147    0.0000 C   0  0
    0.7132   -7.2993    0.0000 N   0  0
    1.2652   -7.9124    0.0000 S   0  0
    1.8172   -8.5255    0.0000 C   0  0
    2.6242   -8.3540    0.0000 C   0  0
    3.1762   -8.9671    0.0000 C   0  0
    2.9213   -9.7517    0.0000 C   0  0
    3.4733  -10.3648    0.0000 C   0  0
    2.1143   -9.9232    0.0000 C   0  0
    1.5623   -9.3101    0.0000 C   0  0
    1.8783   -7.3604    0.0000 O   0  0
    0.6521   -8.4644    0.0000 O   0  0
    0.4161   -5.9016    0.0000 N   0  0
    0.6710   -5.1170    0.0000 C   0  0
    0.1190   -4.5039    0.0000 C   0  0
    0.3739   -3.7192    0.0000 C   0  0
   -0.1781   -3.1062    0.0000 C   0  0
    0.0768   -2.3215    0.0000 C   0  0
    0.8838   -2.1500    0.0000 C   0  0
    1.1387   -1.3654    0.0000 N   0  0
    0.6538   -0.6979    0.0000 C   0  0
   -0.1712   -0.6979    0.0000 C   0  0
   -0.5837    0.0165    0.0000 C   0  0
    1.1387   -0.0305    0.0000 N   0  0
    1.9233   -0.2854    0.0000 C   0  0
    2.6378    0.1271    0.0000 C   0  0
    2.6378    0.9521    0.0000 C   0  0
    3.3523   -0.2854    0.0000 N   0  0
    3.3523   -1.1104    0.0000 C   0  0
    4.0668   -1.5229    0.0000 C   0  0
    2.6378   -1.5229    0.0000 C   0  0
    1.9233   -1.1104    0.0000 C   0  0
    1.4358   -2.7631    0.0000 C   0  0
    1.1809   -3.5477    0.0000 C   0  0
  1  2  2  0
  2  3  1  0
  3  4  1  0
  4  5  1  0
  5  6  2  0
  6  7  1  0
  7  8  2  0
  8  9  1  0
  8 10  1  0
 10 11  2  0
  5 11  1  0
  4 12  2  0
  4 13  2  0
  2 14  1  0
 14 15  1  0
 15 16  1  0
 16 17  1  0
 17 18  2  0
 18 19  1  0
 19 20  2  0
 20 21  1  0
 21 22  1  0
 22 23  1  0
 23 24  1  0
 22 25  2  0
 25 26  1  0
 26 27  2  0
 27 28  1  0
 27 29  1  0
 29 30  2  0
 30 31  1  0
 30 32  1  0
 32 33  2  0
 26 33  1  0
 21 33  1  0
 20 34  1  0
 34 35  2  0
 17 35  1  0
M  END
> <Library>
Bioactives

> <Batch>
2012

> <PLATE>
B1002L2012M01

> <WELL>
J15

> <EOS>
EOS100589

> <CCMF_source_vial_barcode>
LV2001695271

> <concentration_mM>
10

> <volume_ul>
30

$$$$
EOS100590
  SciTegic04282016392D

 33 36  0  0  0  0            999 V2000
   -4.6441   -0.2062    0.0000 C   0  0
   -4.6441   -1.0313    0.0000 C   0  0
   -3.9296   -1.4438    0.0000 N   0  0
   -3.2151   -1.0313    0.0000 C   0  0
   -3.2151   -0.2062    0.0000 C   0  0
   -3.9296    0.2062    0.0000 C   0  0
   -2.5006   -1.4438    0.0000 O   0  0
   -1.7862   -1.0313    0.0000 C   0  0
   -1.0717   -1.4437    0.0000 C   0  0
   -0.3572   -1.0313    0.0000 C   0  0
   -0.3572   -0.2062    0.0000 C   0  0
   -1.0717    0.2062    0.0000 C   0  0
   -1.7862   -0.2062    0.0000 C   0  0
    0.3572   -1.4438    0.0000 C   0  0
    1.0717   -1.0313    0.0000 C   0  0
    1.7862   -1.4438    0.0000 C   0  0
    2.5006   -1.0313    0.0000 C   0  0
    2.5006   -0.2062    0.0000 N   0  0
    1.7862    0.2063    0.0000 C   0  0
    1.0717   -0.2062    0.0000 C   0  0
    3.2151    0.2062    0.0000 C   0  0
    3.9296   -0.2062    0.0000 N   0  0
    3.2151    1.0313    0.0000 O   0  0
    4.6441    0.2062    0.0000 C   0  0
    5.3585   -0.2062    0.0000 C   0  0
    6.0730    0.2062    0.0000 N   0  0
    6.0730    1.0313    0.0000 C   0  0
    5.3585    1.4438    0.0000 C   0  0
    4.6441    1.0313    0.0000 C   0  0
   -5.3585    0.2062    0.0000 C   0  0
   -5.7709   -0.5082    0.0000 F   0  0
   -6.0730    0.6187    0.0000 F   0  0
   -4.9461    0.9207    0.0000 F   0  0
  1  2  2  0
  2  3  1  0
  3  4  2  0
  4  5  1  0
  5  6  2  0
  6  1  1  0
  4  7  1  0
  7  8  1  0
  8  9  2  0
  9 10  1  0
 10 11  2  0
 11 12  1  0
 12 13  2  0
 13  8  1  0
 10 14  1  0
 14 15  1  0
 15 16  1  0
 16 17  1  0
 17 18  1  0
 18 19  1  0
 19 20  1  0
 20 15  1  0
 18 21  1  0
 21 22  1  0
 21 23  2  0
 22 24  1  0
 24 25  2  0
 25 26  1  0
 26 27  2  0
 27 28  1  0
 28 29  2  0
 29 24  1  0
  1 30  1  0
 30 31  1  0
 30 32  1  0
 30 33  1  0
M  END
> <Library>
Bioactives

> <Batch>
2012

> <PLATE>
B1002L2012M01

> <WELL>
L15

> <EOS>
EOS100590

> <CCMF_source_vial_barcode>
LV2001695902

> <concentration_mM>
10

> <volume_ul>
30

$$$$
EOS100591
  SciTegic04282016392D

 31 33  0  0  0  0            999 V2000
    1.7042   -2.7667    0.0000 C   0  0  1  0  0  0
    0.9917   -3.1750    0.0000 C   0  0  1  0  0  0
    0.2875   -2.7542    0.0000 C   0  0  2  0  0  0
    3.8542   -3.1917    0.0000 C   0  0
    1.7125   -1.9417    0.0000 O   0  0
    3.1375   -2.7750    0.0000 C   0  0
    0.2875   -1.9292    0.0000 C   0  0  1  0  0  0
    4.5667   -2.7792    0.0000 C   0  0
    1.0042   -1.5250    0.0000 C   0  0  1  0  0  0
    2.4250   -3.1792    0.0000 O   0  0
    3.1417   -1.9500    0.0000 C   0  0
    4.5667   -1.9542    0.0000 C   0  0
    3.8542   -4.0167    0.0000 C   0  0
    3.8542   -1.5417    0.0000 C   0  0
    3.1500   -4.4292    0.0000 O   0  0
    4.5792   -4.4250    0.0000 C   0  0
    0.9917   -4.0042    0.0000 O   0  0
   -0.4333   -3.1750    0.0000 O   0  0
   -0.4250   -1.5167    0.0000 O   0  0
    5.2917   -3.1917    0.0000 O   0  0
    6.0042   -4.4125    0.0000 C   0  0
    7.4417   -5.2125    0.0000 C   0  0
    5.2917   -4.0042    0.0000 C   0  0
    1.0042   -0.6875    0.0000 C   0  0
    3.8625   -0.7042    0.0000 O   0  0
    6.7292   -5.6292    0.0000 C   0  0
    7.4292   -4.3792    0.0000 C   0  0
    6.0167   -5.2292    0.0000 C   0  0
    6.7167   -3.9875    0.0000 C   0  0
    8.1750   -5.6125    0.0000 O   0  0
    0.3000   -0.2667    0.0000 O   0  0
  2  1  1  0
  2  3  1  0
  4  6  2  0
  1  5  1  0
  6 10  1  0
  7  9  1  0
  8  4  1  0
  9  5  1  0
  1 10  1  1
 11  6  1  0
 12 14  1  0
 13  4  1  0
 14 11  2  0
 15 13  2  0
 16 13  1  0
  2 17  1  6
  3 18  1  1
  7 19  1  6
 20  8  1  0
 21 23  1  0
 22 27  1  0
 23 16  1  0
  9 24  1  1
 25 14  1  0
 26 28  1  0
 27 29  2  0
 28 21  2  0
 29 21  1  0
 30 22  1  0
 31 24  1  0
  3  7  1  0
  8 12  2  0
 22 26  2  0
M  END
> <Library>
Bioactives

> <Batch>
2012

> <PLATE>
B1002L2012M01

> <WELL>
N15

> <EOS>
EOS100591

> <CCMF_source_vial_barcode>
LV2001695299

> <concentration_mM>
10

> <volume_ul>
30

$$$$
EOS100592
  SciTegic04282016392D

 20 21  0  0  0  0            999 V2000
   -1.4151   -0.2444    0.0000 C   0  0
   -2.1295    0.1681    0.0000 C   0  0
   -2.8440   -0.2444    0.0000 C   0  0
   -2.8440   -1.0694    0.0000 C   0  0
   -2.1295   -1.4819    0.0000 C   0  0
   -1.4151   -1.0694    0.0000 N   0  0
   -2.1295    0.9931    0.0000 C   0  0
   -2.8440    1.4056    0.0000 O   0  0
   -1.4151    1.4056    0.0000 O   0  0
   -0.7006    0.1681    0.0000 N   0  0
    0.0139   -0.2444    0.0000 C   0  0
    0.7284    0.1681    0.0000 C   0  0
    1.4428   -0.2444    0.0000 C   0  0
    1.4428   -1.0694    0.0000 C   0  0
    0.7284   -1.4819    0.0000 C   0  0
    0.0139   -1.0694    0.0000 C   0  0
    2.1573    0.1681    0.0000 C   0  0
    2.8717    0.5806    0.0000 F   0  0
    2.1573    0.9931    0.0000 F   0  0
    2.8717   -0.2444    0.0000 F   0  0
  1  2  2  0
  2  3  1  0
  3  4  2  0
  4  5  1  0
  5  6  2  0
  1  6  1  0
  7  8  2  0
  7  9  1  0
  2  7  1  0
 11 12  2  0
 12 13  1  0
 13 14  2  0
 14 15  1  0
 15 16  2  0
 11 16  1  0
 17 18  1  0
 17 19  1  0
 17 20  1  0
 13 17  1  0
 10 11  1  0
  1 10  1  0
M  END
> <Library>
Bioactives

> <Batch>
2012

> <PLATE>
B1002L2012M01

> <WELL>
P15

> <EOS>
EOS100592

> <CCMF_source_vial_barcode>
LV2001695868

> <concentration_mM>
10

> <volume_ul>
30

$$$$
EOS100593
  SciTegic04282016392D

  6  4  0  0  0  0            999 V2000
   -0.4047    0.8818    0.0000 C   0  0
    0.2171    0.5226    0.0000 N   0  0
   -0.4047    1.8521    0.0000 N   0  0
   -1.0239    0.5226    0.0000 N   0  0
    1.0239    0.9890    0.0000 N   0  0
    0.3511   -1.8521    0.0000 Cl  0  0
  1  2  1  0
  1  3  2  0
  1  4  1  0
  2  5  1  0
M  END
> <Library>
Bioactives

> <Batch>
2012

> <PLATE>
B1002L2012M01

> <WELL>
B17

> <EOS>
EOS100593

> <CCMF_source_vial_barcode>
LV2001696516

> <concentration_mM>
10

> <volume_ul>
30

$$$$
EOS100594
  SciTegic04282016392D

 25 27  0  0  0  0            999 V2000
    0.7120    1.2375    0.0000 C   0  0
    0.7120    0.4125    0.0000 C   0  0
    1.4265    0.0000    0.0000 C   0  0
    2.1409    0.4125    0.0000 C   0  0
    2.1409    1.2375    0.0000 C   0  0
    1.4265    1.6500    0.0000 C   0  0
    0.0000    1.6486    0.0000 F   0  0
    2.8529    1.6486    0.0000 C   0  0
    3.6066    1.3130    0.0000 S   0  0
    4.1587    1.9261    0.0000 C   0  0
    3.7462    2.6406    0.0000 C   0  0
    2.9392    2.4690    0.0000 C   0  0
    4.0805    3.3916    0.0000 N   0  0
    3.6680    4.1061    0.0000 C   0  0
    4.0791    4.8181    0.0000 N   0  0
    2.8459    4.1061    0.0000 O   0  0
    4.9763    1.8402    0.0000 C   0  0
    5.4595    2.5053    0.0000 N   0  0
    5.3106    1.0891    0.0000 O   0  0
    6.2771    2.4194    0.0000 C   0  0  2  0  0  0
    6.5877    1.6551    0.0000 C   0  0
    7.4050    1.5419    0.0000 N   0  0
    7.9116    2.1931    0.0000 C   0  0
    7.6009    2.9574    0.0000 C   0  0
    6.7837    3.0705    0.0000 C   0  0
  1  2  2  0
  2  3  1  0
  3  4  2  0
  4  5  1  0
  5  6  2  0
  6  1  1  0
  1  7  1  0
  5  8  1  0
  8  9  1  0
  9 10  1  0
 10 11  2  0
 11 12  1  0
 12  8  2  0
 11 13  1  0
 13 14  1  0
 14 15  1  0
 14 16  2  0
 10 17  1  0
 17 18  1  0
 17 19  2  0
 20 21  1  0
 21 22  1  0
 22 23  1  0
 23 24  1  0
 24 25  1  0
 20 25  1  0
 20 18  1  1
M  END
> <Library>
Bioactives

> <Batch>
2012

> <PLATE>
B1002L2012M01

> <WELL>
D17

> <EOS>
EOS100594

> <CCMF_source_vial_barcode>
LV2001695837

> <concentration_mM>
10

> <volume_ul>
30

$$$$
EOS100595
  SciTegic04282016392D

 50 51  0  0  0  0            999 V2000
   -0.6598   -3.5666    0.0000 C   0  0
   -0.6609   -4.3940    0.0000 N   0  0
    0.0539   -4.8069    0.0000 C   0  0
    0.7703   -4.3935    0.0000 N   0  0
    0.0521   -3.1539    0.0000 C   0  0
    0.7638   -3.5648    0.0000 C   0  0
    1.4734   -3.1539    0.0000 C   0  0
    1.4725   -2.3324    0.0000 C   0  0
    0.7561   -1.9234    0.0000 C   0  0
    0.0494   -2.3365    0.0000 C   0  0
    2.9014   -2.3281    0.0000 C   0  0  2  0  0  0
    2.9933   -3.1464    0.0000 C   0  0
    3.8008   -3.3155    0.0000 O   0  0
    4.2112   -2.5998    0.0000 C   0  0
    3.6573   -1.9884    0.0000 C   0  0
   -1.3743   -3.1543    0.0000 N   0  0
   -2.0887   -3.5670    0.0000 C   0  0
   -2.8032   -3.1529    0.0000 C   0  0
   -3.5170   -3.5649    0.0000 C   0  0
   -3.5173   -4.3908    0.0000 C   0  0
   -2.7977   -4.8029    0.0000 C   0  0
   -2.0868   -4.3886    0.0000 C   0  0
   -2.7946   -5.6279    0.0000 Cl  0  0
   -4.2311   -4.8044    0.0000 F   0  0
    0.7518   -1.0984    0.0000 N   0  0
    1.4641   -0.6822    0.0000 C   0  0
    1.4599    0.1428    0.0000 O   0  0
    2.1807   -1.0910    0.0000 C   0  0
    2.1850   -1.9160    0.0000 O   0  0
    2.8931   -0.6748    0.0000 C   0  0
    3.6097   -1.0836    0.0000 C   0  0
    4.3220   -0.6674    0.0000 N   0  0
    5.0386   -1.0762    0.0000 C   0  0
    4.3177    0.1576    0.0000 C   0  0
   -2.8458   -0.0958    0.0000 C   0  0
   -2.1314    0.3167    0.0000 O   0  0
   -3.5603    0.3167    0.0000 O   0  0
   -2.8458   -0.9208    0.0000 C   0  0
   -2.1314   -1.3333    0.0000 C   0  0
   -1.4169   -0.9208    0.0000 C   0  0
   -0.7024   -1.3333    0.0000 O   0  0
   -1.4169   -0.0958    0.0000 O   0  0
    2.3083    1.9583    0.0000 C   0  0
    3.0228    2.3708    0.0000 O   0  0
    1.5939    2.3708    0.0000 O   0  0
    2.3083    1.1333    0.0000 C   0  0
    3.0228    0.7208    0.0000 C   0  0
    3.7373    1.1333    0.0000 C   0  0
    4.4517    0.7208    0.0000 O   0  0
    3.7373    1.9583    0.0000 O   0  0
 22 17  2  0
  9 10  2  0
 21 23  1  0
 10  5  1  0
 20 24  1  0
  8 29  1  0
  9 25  1  0
  4  6  2  0
 25 26  1  0
 11 29  1  1
 26 27  2  0
 11 12  1  0
 26 28  1  0
  5  1  2  0
 28 30  2  0
  1  2  1  0
 30 31  1  0
  5  6  1  0
 31 32  1  0
 12 13  1  0
 32 33  1  0
 13 14  1  0
 32 34  1  0
 14 15  1  0
 11 15  1  0
 35 36  2  0
 35 37  1  0
  1 16  1  0
 35 38  1  0
  6  7  1  0
 38 39  2  0
 16 17  1  0
 39 40  1  0
  2  3  2  0
 40 41  2  0
 17 18  1  0
 40 42  1  0
  7  8  2  0
 18 19  2  0
 43 44  2  0
 43 45  1  0
 19 20  1  0
 43 46  1  0
  8  9  1  0
 46 47  2  0
 20 21  2  0
 47 48  1  0
  3  4  1  0
 48 49  2  0
 21 22  1  0
 48 50  1  0
M  END
> <Library>
Bioactives

> <Batch>
2012

> <PLATE>
B1002L2012M01

> <WELL>
F17

> <EOS>
EOS100595

> <CCMF_source_vial_barcode>
LV2001696594

> <concentration_mM>
10

> <volume_ul>
30

$$$$
EOS100596
  SciTegic04282016392D

 29 34  0  0  0  0            999 V2000
    6.0520   -5.0592    0.0000 C   0  0
    5.3375   -4.6467    0.0000 N   0  0
    4.6231   -5.0592    0.0000 C   0  0
    3.9086   -4.6467    0.0000 C   0  0
    3.1941   -5.0592    0.0000 O   0  0
    3.9086   -3.8217    0.0000 N   0  0
    4.6231   -3.4092    0.0000 C   0  0  2  0  0  0
    4.6231   -2.5842    0.0000 C   0  0
    3.9086   -2.1717    0.0000 C   0  0
    3.1941   -2.5842    0.0000 C   0  0
    2.5810   -2.0321    0.0000 N   0  0
    2.9166   -1.2785    0.0000 C   0  0
    2.5810   -0.5248    0.0000 C   0  0
    3.0659    0.1426    0.0000 C   0  0
    3.8864    0.0564    0.0000 C   0  0
    4.2220   -0.6973    0.0000 C   0  0
    3.7371   -1.3647    0.0000 C   0  0
    3.1941   -3.4092    0.0000 C   0  0  1  0  0  0
    2.4796   -3.8217    0.0000 C   0  0
    2.4796   -4.6467    0.0000 C   0  0
    1.7652   -5.0592    0.0000 C   0  0
    1.0507   -4.6467    0.0000 C   0  0
    0.2661   -4.9016    0.0000 O   0  0
   -0.2188   -4.2342    0.0000 C   0  0
    0.2661   -3.5667    0.0000 O   0  0
    1.0507   -3.8217    0.0000 C   0  0
    1.7652   -3.4092    0.0000 C   0  0
    5.3375   -3.8217    0.0000 C   0  0
    6.0520   -3.4092    0.0000 O   0  0
  1  2  1  0
  2  3  1  0
  3  4  1  0
  4  5  2  0
  4  6  1  0
  7  6  1  6
  7  8  1  0
  8  9  1  0
  9 10  2  0
 10 11  1  0
 11 12  1  0
 12 13  2  0
 13 14  1  0
 14 15  2  0
 15 16  1  0
 16 17  2  0
  9 17  1  0
 12 17  1  0
 10 18  1  0
  6 18  1  0
 18 19  1  6
 19 20  2  0
 20 21  1  0
 21 22  2  0
 22 23  1  0
 23 24  1  0
 24 25  1  0
 25 26  1  0
 22 26  1  0
 26 27  2  0
 19 27  1  0
  7 28  1  0
  2 28  1  0
 28 29  2  0
M  END
> <Library>
Bioactives

> <Batch>
2012

> <PLATE>
B1002L2012M01

> <WELL>
H17

> <EOS>
EOS100596

> <CCMF_source_vial_barcode>
LV2001695822

> <concentration_mM>
10

> <volume_ul>
30

$$$$
EOS100597
  SciTegic04282016392D

 23 24  0  0  0  0            999 V2000
    0.1158    0.1203    0.0000 S   0  0
    0.8333   -0.2963    0.0000 C   0  0
    0.8333   -1.1249    0.0000 C   0  0
    1.6156   -0.0324    0.0000 S   0  0
    2.1017   -0.7129    0.0000 C   0  0
    2.9303   -0.7129    0.0000 S   0  0
   -0.5925   -0.2963    0.0000 N   0  0
    1.6156   -1.3795    0.0000 C   0  0
    0.1158   -1.5323    0.0000 C   0  0  2  0  0  0
   -0.5925   -1.1249    0.0000 C   0  0
    0.8333    0.5370    0.0000 O   0  0
   -0.4675    0.7036    0.0000 O   0  0
    2.9211    0.1203    0.0000 O   0  0
    3.7219   -0.4907    0.0000 O   0  0
    3.3377   -1.4212    0.0000 N   0  0
    0.1158   -2.3517    0.0000 N   0  0
   -1.3054    0.1203    0.0000 C   0  0
   -2.0229   -0.2963    0.0000 C   0  0
   -3.4534   -0.3055    0.0000 O   0  0
   -2.7359    0.1111    0.0000 C   0  0
   -0.5925   -2.7636    0.0000 C   0  0
   -4.1616    0.1064    0.0000 C   0  0
   -0.5925   -3.5877    0.0000 C   0  0
  2  1  1  0
  3  2  2  0
  4  2  1  0
  5  4  1  0
  6  5  1  0
  7  1  1  0
  8  3  1  0
  9 10  1  0
 10  7  1  0
 11  1  2  0
 12  1  2  0
 13  6  2  0
 14  6  2  0
 15  6  1  0
  9 16  1  1
 17  7  1  0
 18 17  1  0
 19 20  1  0
 20 18  1  0
 21 16  1  0
 22 19  1  0
 23 21  1  0
  9  3  1  0
  5  8  2  0
M  END
> <Library>
Bioactives

> <Batch>
2012

> <PLATE>
B1002L2012M01

> <WELL>
J17

> <EOS>
EOS100597

> <CCMF_source_vial_barcode>
LV2001695896

> <concentration_mM>
10

> <volume_ul>
30

$$$$
EOS100598
  SciTegic04282016392D

 38 42  0  0  0  0            999 V2000
   -3.5615    0.2273    0.0000 C   0  0  2  0  0  0
   -3.5615    1.0524    0.0000 C   0  0
   -2.8495    1.4606    0.0000 N   0  0
   -2.8495   -0.1895    0.0000 N   0  0
   -2.1375    0.2273    0.0000 C   0  0
   -2.1390    1.0504    0.0000 C   0  0
   -1.4282    1.4617    0.0000 C   0  0
   -0.7150    1.0508    0.0000 N   0  0
   -0.7174    0.2245    0.0000 C   0  0
   -1.4289   -0.1830    0.0000 N   0  0
   -4.2755    1.4659    0.0000 O   0  0
   -4.2773   -0.1831    0.0000 C   0  0
   -4.2797   -1.0082    0.0000 C   0  0
   -2.8495   -1.0146    0.0000 C   0  0
   -2.1854   -1.4970    0.0000 C   0  0
   -2.4403   -2.2816    0.0000 C   0  0
   -3.2655   -2.2816    0.0000 C   0  0
   -3.5202   -1.4970    0.0000 C   0  0
   -0.0103   -0.1969    0.0000 N   0  0
    0.7114    0.2077    0.0000 C   0  0
    1.4163   -0.2104    0.0000 C   0  0
    2.1314    0.1970    0.0000 C   0  0
    2.1392    1.0225    0.0000 C   0  0
    1.4199    1.4423    0.0000 C   0  0
    0.7110    1.0306    0.0000 C   0  0
   -0.0066    1.4477    0.0000 O   0  0
   -0.0041    2.2726    0.0000 C   0  0
    2.8567    1.4299    0.0000 C   0  0
    2.8625    2.2549    0.0000 O   0  0
    3.5682    1.0124    0.0000 N   0  0
    3.5624    0.1873    0.0000 C   0  0
    4.2797   -0.2278    0.0000 C   0  0
    4.2759   -1.0493    0.0000 C   0  0
    3.5602   -1.4606    0.0000 N   0  0
    2.8468   -1.0443    0.0000 C   0  0
    2.8490   -0.2165    0.0000 C   0  0
    3.5575   -2.2856    0.0000 C   0  0
   -2.8483    2.2856    0.0000 C   0  0
  1 12  1  6
  1  2  1  0
  1  4  1  0
  2  3  1  0
  2 11  2  0
  3  6  1  0
  3 38  1  0
  5  4  1  0
  4 14  1  0
 10  5  2  0
  5  6  1  0
  6  7  2  0
  7  8  1  0
  8  9  2  0
  9 19  1  0
  9 10  1  0
 12 13  1  0
 18 14  1  0
 14 15  1  0
 15 16  1  0
 16 17  1  0
 17 18  1  0
 19 20  1  0
 20 21  2  0
 25 20  1  0
 21 22  1  0
 22 23  2  0
 23 24  1  0
 23 28  1  0
 24 25  2  0
 25 26  1  0
 26 27  1  0
 28 29  2  0
 28 30  1  0
 30 31  1  0
 31 32  1  0
 31 36  1  0
 32 33  1  0
 33 34  1  0
 34 35  1  0
 34 37  1  0
 35 36  1  0
M  END
> <Library>
Bioactives

> <Batch>
2012

> <PLATE>
B1002L2012M01

> <WELL>
L17

> <EOS>
EOS100598

> <CCMF_source_vial_barcode>
LV2001695273

> <concentration_mM>
10

> <volume_ul>
30

$$$$
EOS100599
  SciTegic04282016392D

 74 81  0  0  0  0            999 V2000
    2.8579    7.5429    0.0000 C   0  0
    2.8579    6.7179    0.0000 C   0  0
    3.5724    6.3054    0.0000 C   0  0
    4.2868    6.7179    0.0000 C   0  0
    4.2868    7.5429    0.0000 C   0  0
    3.5724    7.9554    0.0000 C   0  0
    3.5724    5.4804    0.0000 C   0  0  1  0  0  0
    4.2868    5.0679    0.0000 C   0  0
    2.8579    5.0679    0.0000 N   0  0
    2.1434    5.4804    0.0000 C   0  0
    1.4290    5.0679    0.0000 C   0  0  1  0  0  0
    2.1434    6.3054    0.0000 O   0  0
    0.7145    5.4804    0.0000 N   0  0
    1.4290    4.2429    0.0000 C   0  0
    0.0000    5.0679    0.0000 C   0  0
    5.0013    5.4804    0.0000 N   0  0
    4.2868    4.2429    0.0000 O   0  0
    5.7550    5.1448    0.0000 C   0  0  1  0  0  0
    6.3070    5.7579    0.0000 C   0  0
    5.8945    6.4724    0.0000 C   0  0
    5.0875    6.3009    0.0000 C   0  0
    5.9265    4.3379    0.0000 C   0  0
    5.3134    3.7858    0.0000 O   0  0
    6.7111    4.0829    0.0000 N   0  0
    6.8826    3.2760    0.0000 C   0  0  1  0  0  0
    6.3306    2.6628    0.0000 C   0  0
    6.7431    1.9484    0.0000 C   0  0
    7.5501    2.1199    0.0000 C   0  0
    7.6363    2.9404    0.0000 C   0  0  1  0  0  0
    5.5056    2.6628    0.0000 C   0  0
    5.0931    1.9484    0.0000 C   0  0
    5.5056    1.2339    0.0000 C   0  0
    6.3306    1.2339    0.0000 C   0  0
    8.3508    3.3529    0.0000 O   0  0
    9.0653    2.9404    0.0000 C   0  0
    9.7797    3.3529    0.0000 C   0  0
   10.4934    3.7654    0.0000 C   0  0
   11.2070    4.1779    0.0000 C   0  0
   11.9193    4.5904    0.0000 C   0  0
   12.6329    5.0043    0.0000 C   0  0
   13.3482    4.5931    0.0000 O   0  0
   14.0618    5.0070    0.0000 C   0  0  1  0  0  0
   14.8161    4.6730    0.0000 C   0  0  2  0  0  0
   15.3670    5.2871    0.0000 C   0  0
   14.9531    6.0008    0.0000 C   0  0
   14.1465    5.8277    0.0000 C   0  0
   16.1920    5.2871    0.0000 C   0  0
   16.6031    6.0008    0.0000 C   0  0
   16.1920    6.7144    0.0000 C   0  0
   15.3670    6.7144    0.0000 C   0  0
   14.9893    3.8663    0.0000 N   0  0
   15.7744    3.6129    0.0000 C   0  0
   16.3864    4.1661    0.0000 O   0  0
   15.9475    2.8063    0.0000 C   0  0  2  0  0  0
   15.3966    2.1921    0.0000 C   0  0
   15.8106    1.4785    0.0000 C   0  0
   16.6172    1.6515    0.0000 C   0  0
   16.7018    2.4722    0.0000 N   0  0
   17.4155    2.8861    0.0000 C   0  0
   17.4139    3.7111    0.0000 O   0  0
   18.1308    2.4750    0.0000 C   0  0  2  0  0  0
   18.1323    1.6500    0.0000 C   0  0
   18.8444    2.8889    0.0000 N   0  0
   17.4175    1.2382    0.0000 C   0  0
   17.4175    0.4132    0.0000 C   0  0
   18.1323    0.0000    0.0000 C   0  0
   18.8473    0.4132    0.0000 C   0  0
   18.8473    1.2382    0.0000 C   0  0
   19.5597    2.4778    0.0000 C   0  0
   19.5613    1.6528    0.0000 O   0  0
   20.2733    2.8917    0.0000 C   0  0  2  0  0  0
   20.2717    3.7167    0.0000 C   0  0
   20.9886    2.4806    0.0000 N   0  0
   21.7023    2.8945    0.0000 C   0  0
  1  2  1  0
  2  3  1  0
  3  4  1  0
  4  5  1  0
  5  6  1  0
  6  1  1  0
  7  3  1  0
  7  8  1  0
  7  9  1  1
  9 10  1  0
 11 10  1  0
 10 12  2  0
 11 13  1  0
 11 14  1  6
 13 15  1  0
  8 16  1  0
  8 17  2  0
 18 16  1  0
 18 19  1  0
 19 20  1  0
 20 21  1  0
 21 16  1  0
 18 22  1  1
 22 23  2  0
 22 24  1  0
 25 24  1  6
 25 26  1  0
 26 27  2  0
 27 28  1  0
 29 28  1  0
 25 29  1  0
 26 30  1  0
 30 31  2  0
 31 32  1  0
 32 33  2  0
 33 27  1  0
 29 34  1  6
 34 35  1  0
 35 36  1  0
 36 37  3  0
 37 38  1  0
 38 39  3  0
 39 40  1  0
 40 41  1  0
 42 41  1  6
 42 43  1  0
 43 44  1  0
 44 45  2  0
 45 46  1  0
 42 46  1  0
 44 47  1  0
 47 48  2  0
 48 49  1  0
 49 50  2  0
 50 45  1  0
 43 51  1  6
 51 52  1  0
 52 53  2  0
 54 52  1  1
 54 55  1  0
 55 56  1  0
 56 57  1  0
 57 58  1  0
 54 58  1  0
 58 59  1  0
 59 60  2  0
 61 59  1  0
 61 62  1  0
 61 63  1  1
 62 64  1  0
 64 65  1  0
 65 66  1  0
 66 67  1  0
 67 68  1  0
 68 62  1  0
 63 69  1  0
 69 70  2  0
 71 69  1  0
 71 72  1  6
 71 73  1  0
 73 74  1  0
M  END
> <Library>
Bioactives

> <Batch>
2012

> <PLATE>
B1002L2012M01

> <WELL>
N17

> <EOS>
EOS100599

> <CCMF_source_vial_barcode>
LV2001695298

> <concentration_mM>
10

> <volume_ul>
30

$$$$
EOS100600
  SciTegic04282016392D

 32 34  0  0  0  0            999 V2000
    3.8560   -3.6129    0.0000 N   0  0
    3.3711   -2.9454    0.0000 C   0  0
    3.8560   -2.2780    0.0000 C   0  0
    4.6406   -2.5329    0.0000 C   0  0
    5.3551   -2.1204    0.0000 C   0  0
    6.0695   -2.5329    0.0000 C   0  0
    6.0695   -3.3579    0.0000 C   0  0
    5.3551   -3.7704    0.0000 C   0  0
    4.6406   -3.3579    0.0000 C   0  0
    1.4191   -3.2474    0.0000 C   0  0
    2.1336   -3.6599    0.0000 C   0  0
    2.5461   -2.9454    0.0000 C   0  0
    1.4191   -2.4224    0.0000 O   0  0
    0.7046   -3.6599    0.0000 O   0  0
    6.7840   -2.1204    0.0000 C   0  0
    6.7840   -1.2954    0.0000 C   0  0
    7.4985   -2.5329    0.0000 C   0  0
    1.7211   -4.3743    0.0000 C   0  0
    2.8480   -4.0724    0.0000 C   0  0
    3.6010   -1.4933    0.0000 S   0  0
    2.7941   -1.3218    0.0000 C   0  0
    1.9871   -1.1503    0.0000 C   0  0
    2.9656   -0.5149    0.0000 C   0  0
    2.6226   -2.1288    0.0000 C   0  0
    3.6010   -4.3975    0.0000 C   0  0
    4.1531   -5.0106    0.0000 C   0  0
    3.8981   -5.7952    0.0000 C   0  0
    4.4502   -6.4083    0.0000 C   0  0
    5.2571   -6.2367    0.0000 C   0  0
    5.5121   -5.4522    0.0000 C   0  0
    4.9600   -4.8391    0.0000 C   0  0
    5.8092   -6.8499    0.0000 Cl  0  0
  1  2  1  0
  2  3  2  0
  3  4  1  0
  4  5  2  0
  5  6  1  0
  6  7  2  0
  7  8  1  0
  8  9  2  0
  1  9  1  0
  4  9  1  0
 10 11  1  0
 11 12  1  0
 10 13  2  0
 10 14  1  0
  2 12  1  0
 15 16  1  0
 15 17  1  0
  6 15  1  0
 11 18  1  0
 11 19  1  0
 21 22  1  0
 21 23  1  0
 21 24  1  0
 20 21  1  0
  3 20  1  0
 26 27  2  0
 27 28  1  0
 28 29  2  0
 29 30  1  0
 30 31  2  0
 26 31  1  0
 29 32  1  0
 25 26  1  0
  1 25  1  0
M  END
> <Library>
Bioactives

> <Batch>
2012

> <PLATE>
B1002L2012M01

> <WELL>
P17

> <EOS>
EOS100600

> <CCMF_source_vial_barcode>
LV2001695899

> <concentration_mM>
10

> <volume_ul>
30

$$$$
EOS100601
  SciTegic04282016392D

 31 34  0  0  0  0            999 V2000
    2.1409    2.4736    0.0000 C   0  0
    2.1409    1.6486    0.0000 C   0  0
    2.8554    1.2361    0.0000 C   0  0
    3.5699    1.6486    0.0000 C   0  0
    3.5699    2.4736    0.0000 C   0  0
    2.8554    2.8861    0.0000 C   0  0
    1.4290    1.2375    0.0000 N   0  0
    0.7145    1.6500    0.0000 C   0  0
    0.0000    1.2375    0.0000 C   0  0
    0.0000    0.4125    0.0000 O   0  0
    0.7145    0.0000    0.0000 C   0  0
    1.4290    0.4125    0.0000 C   0  0
    4.2819    2.8846    0.0000 N   0  0
    4.9938    2.4736    0.0000 C   0  0
    4.9938    1.6486    0.0000 N   0  0
    5.7084    1.2361    0.0000 C   0  0
    6.4228    1.6486    0.0000 C   0  0
    6.4228    2.4736    0.0000 C   0  0
    5.7084    2.8861    0.0000 N   0  0
    7.1348    2.8846    0.0000 C   0  0
    7.8493    2.4721    0.0000 C   0  0
    8.5637    2.8846    0.0000 C   0  0
    8.5637    3.7096    0.0000 C   0  0
    7.8493    4.1221    0.0000 C   0  0
    7.1348    3.7096    0.0000 C   0  0
    9.2757    4.1207    0.0000 C   0  0
    9.9877    3.7096    0.0000 N   0  0
    9.2757    4.9429    0.0000 O   0  0
   10.6997    4.1207    0.0000 C   0  0
   11.4117    3.7096    0.0000 C   0  0
   12.1221    3.3000    0.0000 N   0  0
  1  2  2  0
  2  3  1  0
  3  4  2  0
  4  5  1  0
  5  6  2  0
  6  1  1  0
  2  7  1  0
  7  8  1  0
  8  9  1  0
  9 10  1  0
 10 11  1  0
 11 12  1  0
 12  7  1  0
  5 13  1  0
 13 14  1  0
 14 15  2  0
 15 16  1  0
 16 17  2  0
 17 18  1  0
 18 19  2  0
 19 14  1  0
 18 20  1  0
 20 21  2  0
 21 22  1  0
 22 23  2  0
 23 24  1  0
 24 25  2  0
 25 20  1  0
 23 26  1  0
 26 27  1  0
 26 28  2  0
 27 29  1  0
 29 30  1  0
 30 31  3  0
M  END
> <Library>
Bioactives

> <Batch>
2012

> <PLATE>
B1002L2012M01

> <WELL>
B19

> <EOS>
EOS100601

> <CCMF_source_vial_barcode>
LV2001695313

> <concentration_mM>
10

> <volume_ul>
30

$$$$
EOS100602
  SciTegic04282016392D

 23 26  0  0  1  0            999 V2000
   -1.4678   -0.5597    0.0000 C   0  0
   -2.2981   -0.5597    0.0000 N   0  0
   -0.9526    0.0741    0.0000 C   0  0
   -1.8793    1.2454    0.0000 N   0  0
   -1.2381   -1.3418    0.0000 N   0  0
   -2.7763    0.0816    0.0000 C   0  0
   -1.1305    0.8822    0.0000 C   0  0
   -2.5910    0.8896    0.0000 C   0  0
   -3.5695   -0.1483    0.0000 C   0  0
   -0.7562   -2.9172    0.0000 N   0  0
   -0.4374   -1.5272    0.0000 C   0  0
   -1.7903   -1.9275    0.0000 C   0  0
   -3.1952    1.4419    0.0000 C   0  0
   -4.1738    0.4114    0.0000 C   0  0
   -0.1890   -2.3019    0.0000 C   0  0
   -1.5568   -2.7282    0.0000 C   0  0
   -0.1705   -0.1668    0.0000 C   0  0
   -3.9884    1.2195    0.0000 C   0  0
   -4.9669    0.1519    0.0000 Cl  0  0
   -0.5264    1.4530    0.0000 C   0  0
   -0.5004   -3.7178    0.0000 C   0  0
    0.4522    0.3743    0.0000 C   0  0
    0.2558    1.1936    0.0000 C   0  0
  2  1  2  0
  3  1  1  0
  4  7  1  0
  5  1  1  0
  6  2  1  0
  7  3  2  0
  8  6  2  0
  9  6  1  0
 10 16  1  0
 11  5  1  0
 12  5  1  0
 13  8  1  0
 14  9  2  0
 15 11  1  0
 16 12  1  0
 17  3  1  0
 18 14  1  0
 19 14  1  0
 20  7  1  0
 21 10  1  0
 22 17  2  0
 23 22  1  0
 10 15  1  0
  4  8  1  0
 20 23  2  0
 13 18  2  0
M  END
> <Library>
Bioactives

> <Batch>
2012

> <PLATE>
B1002L2012M01

> <WELL>
D19

> <EOS>
EOS100602

> <CCMF_source_vial_barcode>
LV2001695337

> <concentration_mM>
10

> <volume_ul>
30

$$$$
EOS100603
  SciTegic04282016392D

 25 27  0  0  0  0            999 V2000
    0.7120    4.5624    0.0000 C   0  0
    0.7120    3.7374    0.0000 C   0  0
    1.4265    3.3249    0.0000 C   0  0
    2.1409    3.7374    0.0000 C   0  0
    2.1409    4.5624    0.0000 C   0  0
    1.4265    4.9749    0.0000 C   0  0
    0.0000    3.3263    0.0000 Cl  0  0
    2.8529    3.3263    0.0000 Cl  0  0
    1.4265    2.5028    0.0000 C   0  0
    2.1385    2.0917    0.0000 N   0  0
    0.7145    2.0917    0.0000 O   0  0
    2.1385    1.2696    0.0000 C   0  0
    1.4710    0.7846    0.0000 C   0  0
    1.7260    0.0000    0.0000 N   0  0
    2.5510    0.0000    0.0000 N   0  0
    2.8059    0.7846    0.0000 C   0  0
    3.5878    1.0387    0.0000 C   0  0
    3.7587    1.8429    0.0000 O   0  0
    4.1988    0.4886    0.0000 N   0  0
    4.9806    0.7426    0.0000 C   0  0
    5.5937    0.1906    0.0000 C   0  0
    6.3784    0.4455    0.0000 C   0  0
    6.5499    1.2525    0.0000 N   0  0
    5.9368    1.8045    0.0000 C   0  0
    5.1522    1.5496    0.0000 C   0  0
  1  2  2  0
  2  3  1  0
  3  4  2  0
  4  5  1  0
  5  6  2  0
  6  1  1  0
  2  7  1  0
  4  8  1  0
  3  9  1  0
  9 10  1  0
  9 11  2  0
 10 12  1  0
 12 13  2  0
 13 14  1  0
 14 15  1  0
 15 16  2  0
 16 12  1  0
 16 17  1  0
 17 18  2  0
 17 19  1  0
 19 20  1  0
 20 21  1  0
 21 22  1  0
 22 23  1  0
 23 24  1  0
 24 25  1  0
 25 20  1  0
M  END
> <Library>
Bioactives

> <Batch>
2012

> <PLATE>
B1002L2012M01

> <WELL>
F19

> <EOS>
EOS100603

> <CCMF_source_vial_barcode>
LV2001695328

> <concentration_mM>
10

> <volume_ul>
30

$$$$
EOS100604
  SciTegic04282016392D

 23 26  0  0  0  0            999 V2000
    0.0000    2.4728    0.0000 N   0  0
    0.0000    1.6478    0.0000 C   0  0
    0.7145    1.2353    0.0000 N   0  0
    1.4290    1.6478    0.0000 C   0  0
    1.4290    2.4728    0.0000 C   0  0
    0.7145    2.8853    0.0000 C   0  0
    2.2136    1.3928    0.0000 N   0  0
    2.6985    2.0603    0.0000 N   0  0
    2.2136    2.7277    0.0000 C   0  0
    0.7145    3.7074    0.0000 N   0  0
    2.4676    0.6110    0.0000 C   0  0
    1.9175    0.0000    0.0000 C   0  0
    3.2718    0.4400    0.0000 C   0  0
    2.4676    3.5097    0.0000 C   0  0
    3.2523    3.7646    0.0000 N   0  0
    3.2523    4.5896    0.0000 C   0  0
    2.4676    4.8445    0.0000 C   0  0
    1.9827    4.1771    0.0000 C   0  0
    3.8654    5.1416    0.0000 C   0  0
    3.6938    5.9486    0.0000 C   0  0
    2.9092    6.2035    0.0000 C   0  0
    2.2961    5.6515    0.0000 C   0  0
    2.7382    7.0077    0.0000 O   0  0
  1  2  2  0
  2  3  1  0
  3  4  2  0
  4  5  1  0
  5  6  2  0
  6  1  1  0
  4  7  1  0
  7  8  1  0
  8  9  2  0
  9  5  1  0
  6 10  1  0
  7 11  1  0
 11 12  1  0
 11 13  1  0
  9 14  1  0
 14 15  1  0
 15 16  1  0
 16 17  1  0
 17 18  1  0
 18 14  2  0
 16 19  2  0
 19 20  1  0
 20 21  2  0
 21 22  1  0
 22 17  2  0
 21 23  1  0
M  END
> <Library>
Bioactives

> <Batch>
2012

> <PLATE>
B1002L2012M01

> <WELL>
H19

> <EOS>
EOS100604

> <CCMF_source_vial_barcode>
LV2001696538

> <concentration_mM>
10

> <volume_ul>
30

$$$$
EOS100605
  SciTegic04282016392D

 32 37  0  0  0  0            999 V2000
    2.5496    3.0806    0.0000 N   0  0
    2.4563    3.9003    0.0000 C   0  0
    1.7989    2.7386    0.0000 C   0  0
    1.2416    3.3469    0.0000 N   0  0
    1.6510    4.0654    0.0000 C   0  0
    1.2357    4.7753    0.0000 C   0  0
    0.4093    4.7753    0.0000 N   0  0
    0.0000    4.0543    0.0000 C   0  0
    0.4169    3.3469    0.0000 C   0  0
    1.6451    5.4914    0.0000 N   0  0
    1.6367    1.9325    0.0000 C   0  0  2  0  0  0
    0.9487    1.4772    0.0000 C   0  0
    1.4039    0.7893    0.0000 C   0  0  2  0  0  0
    2.0919    1.2445    0.0000 C   0  0
    1.6249    0.0000    0.0000 C   0  0
    0.9974    0.0798    0.0000 O   0  0
    3.0650    4.4570    0.0000 C   0  0
    3.0650    5.2845    0.0000 C   0  0
    3.7799    4.0442    0.0000 C   0  0
    3.7781    5.6971    0.0000 C   0  0
    4.4934    5.2881    0.0000 C   0  0
    4.4934    4.4613    0.0000 C   0  0
    5.2094    4.0503    0.0000 N   0  0
    5.9244    4.4651    0.0000 C   0  0
    5.9244    5.2950    0.0000 C   0  0
    5.2038    5.7022    0.0000 C   0  0
    6.6369    4.0594    0.0000 C   0  0
    6.6369    3.2333    0.0000 C   0  0
    7.3540    2.8237    0.0000 C   0  0
    8.0679    3.2390    0.0000 C   0  0
    8.0679    4.0683    0.0000 C   0  0
    7.3462    4.4742    0.0000 C   0  0
 13 15  1  6
  4  9  1  0
 13 16  1  1
  5  6  1  0
  2 17  1  0
  6  7  2  0
 18 17  2  0
  7  8  1  0
 17 19  1  0
 19 22  2  0
  8  9  2  0
 21 20  2  0
 20 18  1  0
  1  2  1  0
  6 10  1  0
 21 22  1  0
 11 12  1  1
 22 23  1  0
 23 24  2  0
  2  5  2  0
 24 25  1  0
  4  3  1  0
 25 26  2  0
 26 21  1  0
  3  1  2  0
 13 12  1  0
 27 28  2  0
 13 14  1  0
 28 29  1  0
 11 14  1  0
 29 30  2  0
 11  3  1  0
 30 31  1  0
  4  5  1  0
 31 32  2  0
 32 27  1  0
 24 27  1  0
M  END
> <Library>
Bioactives

> <Batch>
2012

> <PLATE>
B1002L2012M01

> <WELL>
J19

> <EOS>
EOS100605

> <CCMF_source_vial_barcode>
LV2001695864

> <concentration_mM>
10

> <volume_ul>
30

$$$$
EOS100606
  SciTegic04282016392D

 39 43  0  0  0  0            999 V2000
    0.6204    4.2739    0.0000 C   0  0
    0.6204    3.4489    0.0000 C   0  0
    1.3348    3.0364    0.0000 N   0  0
    2.0493    3.4489    0.0000 N   0  0
    2.0493    4.2739    0.0000 C   0  0
    1.3348    4.6864    0.0000 C   0  0
    2.8340    3.1940    0.0000 C   0  0
    3.3190    3.8614    0.0000 C   0  0
    2.8340    4.5288    0.0000 N   0  0
    3.0889    2.4094    0.0000 C   0  0
    3.3439    1.6248    0.0000 C   0  0
    3.5988    0.8401    0.0000 C   0  0
    3.0467    0.2270    0.0000 C   0  0
    3.3016   -0.5576    0.0000 C   0  0
    4.1086   -0.7290    0.0000 C   0  0
    4.6607   -0.1160    0.0000 C   0  0
    4.4058    0.6687    0.0000 C   0  0
    2.2397    0.3986    0.0000 C   0  0
    5.4677   -0.2875    0.0000 C   0  0
    5.7226   -1.0721    0.0000 O   0  0
    6.0197    0.3256    0.0000 N   0  0
    6.8267    0.1540    0.0000 C   0  0
    7.0816   -0.6306    0.0000 C   0  0
    7.8886   -0.8020    0.0000 C   0  0
    8.4406   -0.1891    0.0000 C   0  0
    8.1856    0.5956    0.0000 C   0  0
    7.3786    0.7671    0.0000 C   0  0
    9.2475   -0.3605    0.0000 C   0  0
    9.7996    0.2526    0.0000 N   0  0
   10.6066    0.0810    0.0000 C   0  0
   11.1586    0.6941    0.0000 C   0  0
   10.9037    1.4788    0.0000 N   0  0
   10.0967    1.6503    0.0000 C   0  0
    9.5447    1.0372    0.0000 C   0  0
   11.4556    2.0918    0.0000 C   0  0
    8.1411   -1.5841    0.0000 C   0  0
    8.8555   -1.1716    0.0000 F   0  0
    8.5536   -2.2986    0.0000 F   0  0
    7.4266   -1.9966    0.0000 F   0  0
 14 15  1  0
 15 16  2  0
 16 17  1  0
 17 12  2  0
 13 18  1  0
 16 19  1  0
 19 20  2  0
 19 21  1  0
 21 22  1  0
 22 23  2  0
 23 24  1  0
 24 25  2  0
 25 26  1  0
 26 27  2  0
 27 22  1  0
 24 36  1  0
 25 28  1  0
 28 29  1  0
 29 30  1  0
 30 31  1  0
 31 32  1  0
 32 33  1  0
 33 34  1  0
 34 29  1  0
 32 35  1  0
  1  2  1  0
  2  3  2  0
  3  4  1  0
  4  5  1  0
  5  6  1  0
  6  1  2  0
  4  7  1  0
  7  8  2  0
  8  9  1  0
  9  5  2  0
  7 10  1  0
 10 11  3  0
 11 12  1  0
 12 13  1  0
 13 14  2  0
 36 37  1  0
 36 38  1  0
 36 39  1  0
M  END
> <Library>
Bioactives

> <Batch>
2012

> <PLATE>
B1002L2012M01

> <WELL>
L19

> <EOS>
EOS100606

> <CCMF_source_vial_barcode>
LV2001695320

> <concentration_mM>
10

> <volume_ul>
30

$$$$
EOS100607
  SciTegic04282016392D

 25 27  0  0  0  0            999 V2000
   23.2667  -14.9125    0.0000 C   0  0  2  0  0  0
   21.1292  -15.3292    0.0000 C   0  0
   23.9750  -16.1542    0.0000 N   0  0
   22.5542  -15.3292    0.0000 C   0  0
   23.2667  -15.7375    0.0000 C   0  0
   25.4125  -13.6792    0.0000 C   0  0
   21.8417  -14.9167    0.0000 C   0  0
   20.4167  -14.9167    0.0000 O   0  0
   21.1292  -16.1542    0.0000 C   0  0
   24.7000  -14.0917    0.0000 C   0  0  2  0  0  0
   23.2667  -14.0917    0.0000 C   0  0
   23.9875  -15.3250    0.0000 C   0  0
   25.4125  -12.8542    0.0000 O   0  0
   22.5542  -16.1542    0.0000 C   0  0
   21.8417  -16.5667    0.0000 C   0  0
   23.9792  -13.6792    0.0000 C   0  0
   24.7000  -14.9167    0.0000 C   0  0
   26.1292  -14.0917    0.0000 O   0  0
   19.7000  -15.3292    0.0000 C   0  0
   20.4125  -16.5667    0.0000 O   0  0
   20.4125  -17.3917    0.0000 C   0  0
   19.7000  -16.1542    0.0000 C   0  0
   18.9417  -14.9917    0.0000 C   0  0
   18.8042  -16.3167    0.0000 C   0  0
   18.3917  -15.6042    0.0000 C   0  0
  2  7  2  0
  3  5  3  0
  1  4  1  0
  1  5  1  1
 10  6  1  1
  7  4  1  0
  8  2  1  0
  9 15  2  0
 10 17  1  0
  1 11  1  0
  1 12  1  0
 13  6  2  0
 14  4  2  0
 15 14  1  0
 16 11  1  0
 17 12  1  0
 18  6  1  0
 19  8  1  0
 20  9  1  0
 21 20  1  0
 22 19  1  0
 23 19  1  0
 24 22  1  0
 25 23  1  0
 10 16  1  0
  9  2  1  0
 24 25  1  0
M  END
> <Library>
Bioactives

> <Batch>
2012

> <PLATE>
B1002L2012M01

> <WELL>
N19

> <EOS>
EOS100607

> <CCMF_source_vial_barcode>
LV2001695832

> <concentration_mM>
10

> <volume_ul>
30

$$$$
EOS100608
  SciTegic04282016392D

 24 26  0  0  1  0            999 V2000
   -2.1434    2.0625    0.0000 C   0  0
   -2.1434    1.2375    0.0000 C   0  0  2  0  0  0
   -1.4289    0.8250    0.0000 N   0  0
   -0.7145    1.2375    0.0000 C   0  0
   -0.7145    2.0625    0.0000 N   0  0
    0.0000    2.4750    0.0000 C   0  0
    0.7145    2.8875    0.0000 N   0  0
    0.0000    0.8250    0.0000 N   0  0
    0.0000    0.0000    0.0000 C   0  0
   -0.7145   -0.4125    0.0000 C   0  0
   -0.7145   -1.2375    0.0000 C   0  0
    0.0000   -1.6500    0.0000 C   0  0
    0.7145   -1.2375    0.0000 C   0  0
    0.7145   -0.4125    0.0000 C   0  0
    1.4289    0.0000    0.0000 C   0  0
    2.1434   -0.4125    0.0000 C   0  0
    2.1434   -1.2375    0.0000 C   0  0
    1.4289   -1.6500    0.0000 N   0  0
   -2.8579    0.8250    0.0000 C   0  0
   -2.8579    0.0000    0.0000 C   0  0
   -3.5724   -0.4125    0.0000 C   0  0
   -4.2868    0.0000    0.0000 C   0  0
   -4.2868    0.8250    0.0000 C   0  0
   -3.5724    1.2375    0.0000 C   0  0
  2  1  1  6
  2  3  1  0
  3  4  1  0
  4  5  1  0
  5  6  1  0
  6  7  3  0
  4  8  2  0
  8  9  1  0
  9 10  1  0
 10 11  2  0
 11 12  1  0
 12 13  2  0
 13 14  1  0
  9 14  2  0
 14 15  1  0
 15 16  2  0
 16 17  1  0
 17 18  2  0
 13 18  1  0
  2 19  1  0
 19 20  2  0
 20 21  1  0
 21 22  2  0
 22 23  1  0
 23 24  2  0
 19 24  1  0
M  END
> <Library>
Bioactives

> <Batch>
2012

> <PLATE>
B1002L2012M01

> <WELL>
P19

> <EOS>
EOS100608

> <CCMF_source_vial_barcode>
LV2001695322

> <concentration_mM>
10

> <volume_ul>
30

$$$$
EOS100609
  SciTegic04282016392D

 42 43  0  0  0  0            999 V2000
    2.4386   -1.7342    0.0000 C   0  0
    3.0953   -1.3550    0.0000 N   0  0
    3.7334   -1.7644    0.0000 C   0  0
    3.7334   -2.5996    0.0000 C   0  0
    4.5395   -1.3917    0.0000 C   0  0
    4.4915   -3.0481    0.0000 C   0  0
    2.9475   -3.0393    0.0000 C   0  0
    4.5395   -0.6333    0.0000 O   0  0
    5.2597   -1.8365    0.0000 C   0  0
    4.4915   -3.8065    0.0000 O   0  0
    5.2597   -2.6514    0.0000 C   0  0
    5.9584   -3.0607    0.0000 N   0  0
    1.7241   -1.3217    0.0000 C   0  0
    1.0096   -1.7342    0.0000 C   0  0
    6.6728   -2.6482    0.0000 C   0  0
    7.3873   -3.0607    0.0000 C   0  0
    6.6728   -1.8232    0.0000 O   0  0
    8.1017   -2.6482    0.0000 C   0  0
    7.3873   -3.8857    0.0000 C   0  0
    8.1017   -4.2982    0.0000 C   0  0
    8.1017   -5.1232    0.0000 C   0  0
    7.3873   -5.5357    0.0000 C   0  0  1  0  0  0
    2.9475   -3.8643    0.0000 C   0  0  1  0  0  0
    2.2330   -4.2768    0.0000 C   0  0
    3.6620   -4.2768    0.0000 C   0  0
    3.6620   -5.1018    0.0000 C   0  0  2  0  0  0
    2.9475   -5.5143    0.0000 O   0  0
    4.3765   -5.5143    0.0000 C   0  0  1  0  0  0
    4.3765   -6.3393    0.0000 C   0  0  2  0  0  0
    5.0909   -6.7518    0.0000 C   0  0
    5.8054   -6.3393    0.0000 C   0  0
    5.8054   -5.5143    0.0000 C   0  0
    6.9748   -6.2502    0.0000 C   0  0  2  0  0  0
    5.0909   -5.1018    0.0000 O   0  0
    2.1225   -5.5143    0.0000 C   0  0
    6.8039   -4.9524    0.0000 O   0  0
    5.9789   -4.9524    0.0000 C   0  0
    7.5581   -6.8336    0.0000 O   0  0
    8.3550   -6.6200    0.0000 C   0  0
    8.7675   -7.3345    0.0000 N   0  0
    8.5686   -5.8232    0.0000 O   0  0
    3.6620   -6.7518    0.0000 C   0  0
  1  2  1  0
  3  2  1  0
  4  3  2  0
  5  3  1  0
  6  4  1  0
  7  4  1  0
  8  5  2  0
  9  5  1  0
 10  6  2  0
 11  6  1  0
 12 11  1  0
  9 11  2  0
  1 13  1  0
 13 14  2  0
 12 15  1  0
 15 16  1  0
 15 17  2  0
 16 18  1  0
 16 19  2  0
 19 20  1  0
 20 21  2  0
 22 21  1  0
 23  7  1  0
 23 24  1  6
 23 25  1  0
 26 25  1  0
 26 27  1  1
 28 26  1  0
 28 29  1  0
 29 30  1  0
 30 31  2  0
 31 32  1  0
 22 33  1  0
 33 31  1  0
 28 34  1  6
 27 35  1  0
 22 36  1  1
 36 37  1  0
 33 38  1  1
 38 39  1  0
 39 40  1  0
 39 41  2  0
 29 42  1  6
M  END
> <Library>
Bioactives

> <Batch>
2012

> <PLATE>
B1002L2012M01

> <WELL>
B21

> <EOS>
EOS100609

> <CCMF_source_vial_barcode>
LV2001695834

> <concentration_mM>
10

> <volume_ul>
30

$$$$
EOS100610
  SciTegic04282016392D

 28 30  0  0  0  0            999 V2000
    0.4125    3.2723    0.0000 O   0  0
    2.5941    3.2002    0.0000 N   0  0
    2.7231    2.3853    0.0000 C   0  0
    2.0820    1.8661    0.0000 C   0  0
    1.3117    2.1618    0.0000 C   0  0
    1.1827    2.9767    0.0000 C   0  0
    1.8239    3.4959    0.0000 C   0  0
    4.5307    1.2497    0.0000 O   0  0
    3.7068    1.2928    0.0000 N   0  0
    3.4933    2.0897    0.0000 C   0  0
    4.1852    2.5390    0.0000 N   0  0
    4.8264    2.0198    0.0000 C   0  0
    5.5746    1.1197    0.0000 C   0  0
    6.6798    0.9742    0.0000 C   0  0
    6.9211    2.8875    0.0000 O   0  0
    6.9211    2.0625    0.0000 C   0  0
    6.2066    1.6500    0.0000 C   0  0
    5.6233    2.2334    0.0000 C   0  0
    7.6355    1.6500    0.0000 N   0  0
    9.0645    1.6500    0.0000 C   0  0
    8.3500    2.0625    0.0000 C   0  0
    8.3500    2.8875    0.0000 C   0  0
    9.0645    3.3000    0.0000 C   0  0
    9.7789    2.8875    0.0000 C   0  0
    9.7790    2.0625    0.0000 C   0  0
    9.0645    0.8250    0.0000 C   0  0
    9.7790    0.4125    0.0000 O   0  0
    8.3500    0.4125    0.0000 O   0  0
  2  3  2  0
  3  4  1  0
  4  5  2  0
  5  6  1  0
  6  7  2  0
  2  7  1  0
  1  6  1  0
  8  9  1  0
  9 10  2  0
 10 11  1  0
 11 12  2  0
  8 12  1  0
  3 10  1  0
 16 17  1  0
 17 18  1  0
 15 16  2  0
 14 17  1  0
 13 17  1  0
 12 18  1  0
 16 19  1  0
 20 21  2  0
 21 22  1  0
 22 23  1  0
 23 24  1  0
 24 25  1  0
 20 25  1  0
 26 27  2  0
 26 28  1  0
 20 26  1  0
 19 21  1  0
M  END
> <Library>
Bioactives

> <Batch>
2012

> <PLATE>
B1002L2012M01

> <WELL>
D21

> <EOS>
EOS100610

> <CCMF_source_vial_barcode>
LV2001696542

> <concentration_mM>
10

> <volume_ul>
30

$$$$
EOS100611
  SciTegic04282016392D

 28 27  0  0  0  0            999 V2000
    0.0000   -0.8250    0.0000 C   0  0
    0.0000    0.0000    0.0000 S   0  0
    0.0000    0.8250    0.0000 O   0  0
    0.8250    0.0000    0.0000 O   0  0
   -0.8250    0.0000    0.0000 O   0  0
    3.0643    0.5560    0.0000 C   0  0
    3.7788    0.9685    0.0000 C   0  0
    4.4932    0.5560    0.0000 O   0  0
    5.2077    0.9685    0.0000 C   0  0
    5.2077    1.7935    0.0000 O   0  0
    5.9222    0.5560    0.0000 C   0  0
    6.6366    0.9685    0.0000 C   0  0
    7.3511    0.5560    0.0000 C   0  0
    7.3511   -0.2690    0.0000 C   0  0
    8.0656   -0.6815    0.0000 O   0  0
    8.7801   -0.2690    0.0000 C   0  0
    8.7801    0.5560    0.0000 O   0  0
    9.4945   -0.6815    0.0000 C   0  0
   10.2090   -0.2690    0.0000 C   0  0
   10.9235   -0.6815    0.0000 C   0  0
   11.6379   -0.2690    0.0000 C   0  0
   12.3524   -0.6815    0.0000 C   0  0
   13.0669   -0.2690    0.0000 N   0  0
   13.7814   -0.6815    0.0000 C   0  0
   14.4958   -0.2690    0.0000 N   0  0
   13.7814   -1.5065    0.0000 N   0  0
    6.6366   -0.6815    0.0000 C   0  0
    5.9222   -0.2690    0.0000 C   0  0
  1  2  1  0
  2  3  1  0
  2  4  2  0
  2  5  2  0
  6  7  1  0
  7  8  1  0
  8  9  1  0
  9 10  2  0
  9 11  1  0
 11 12  2  0
 12 13  1  0
 13 14  2  0
 14 15  1  0
 15 16  1  0
 16 17  2  0
 16 18  1  0
 18 19  1  0
 19 20  1  0
 20 21  1  0
 21 22  1  0
 22 23  1  0
 23 24  1  0
 24 25  1  0
 24 26  2  0
 14 27  1  0
 27 28  2  0
 11 28  1  0
M  END
> <Library>
Bioactives

> <Batch>
2012

> <PLATE>
B1002L2012M01

> <WELL>
F21

> <EOS>
EOS100611

> <CCMF_source_vial_barcode>
LV2001695903

> <concentration_mM>
10

> <volume_ul>
30

$$$$
EOS100612
  SciTegic04282016392D

 15 15  0  0  0  0            999 V2000
    1.0407    0.0075    0.0000 N   0  0
   -0.2106    0.7297    0.0000 N   0  0
   -0.2006   -0.7097    0.0000 N   0  0
   -0.6294    0.0075    0.0000 C   0  0
    0.6119    0.7297    0.0000 C   0  0
    0.6244   -0.7097    0.0000 C   0  0
    1.0332   -1.4319    0.0000 N   0  0
   -1.4569    0.0075    0.0000 N   0  0
    1.0156    1.4444    0.0000 N   0  0
    1.8582   -1.4319    0.0000 C   0  0
   -1.8657   -0.7022    0.0000 C   0  0
   -1.8732    0.7197    0.0000 C   0  0
    0.6119   -2.1466    0.0000 C   0  0
    0.5943    2.1490    0.0000 C   0  0
    1.8356    1.4645    0.0000 C   0  0
  2  5  1  0
  3  6  2  0
  4  3  1  0
  5  1  2  0
  6  1  1  0
  7  6  1  0
  8  4  1  0
  9  5  1  0
 10  7  1  0
 11  8  1  0
 12  8  1  0
 13  7  1  0
 14  9  1  0
 15  9  1  0
  2  4  2  0
M  END
> <Library>
Bioactives

> <Batch>
2012

> <PLATE>
B1002L2012M01

> <WELL>
H21

> <EOS>
EOS100612

> <CCMF_source_vial_barcode>
LV2001695915

> <concentration_mM>
10

> <volume_ul>
30

$$$$
EOS100613
  SciTegic04282016392D

 30 35  0  0  0  0            999 V2000
    0.4125    1.6500    0.0000 C   0  0
    0.0000    0.9355    0.0000 C   0  0
    0.7932    1.1622    0.0000 C   0  0
    1.5913    0.9355    0.0000 C   0  0
    2.0039    1.6500    0.0000 C   0  0
    1.2106    1.4234    0.0000 C   0  0
    0.7932    1.9872    0.0000 C   0  0
    1.2059    2.7017    0.0000 C   0  0
    0.4125    2.4751    0.0000 C   0  0
    2.0027    2.4881    0.0000 C   0  0
    2.7184    1.2375    0.0000 C   0  0
    2.7184    0.4125    0.0000 C   0  0
    3.4328    0.0000    0.0000 C   0  0
    4.1473    0.4125    0.0000 C   0  0
    4.1473    1.2375    0.0000 C   0  0
    3.4328    1.6500    0.0000 C   0  0
    4.8618    1.6500    0.0000 C   0  0
    5.5762    1.2375    0.0000 C   0  0
    6.2907    1.6500    0.0000 C   0  0
    6.2907    2.4750    0.0000 C   0  0
    5.5762    2.8875    0.0000 C   0  0
    4.8618    2.4750    0.0000 C   0  0
    7.0052    1.2375    0.0000 C   0  0
    7.7197    1.6500    0.0000 C   0  0
    7.7197    2.4750    0.0000 C   0  0
    7.0052    2.8875    0.0000 C   0  0
    8.4342    2.8875    0.0000 C   0  0
    8.4342    3.7125    0.0000 O   0  0
    9.1486    2.4750    0.0000 O   0  0
    2.0039    0.0000    0.0000 O   0  0
  1  2  1  0
  2  3  1  0
  3  4  1  0
  4  5  1  0
  5  6  1  0
  6  1  1  0
  3  7  1  0
  7  8  1  0
  8  9  1  0
  9  1  1  0
  8 10  1  0
 10  5  1  0
  5 11  1  0
 11 12  2  0
 12 13  1  0
 13 14  2  0
 14 15  1  0
 15 16  2  0
 16 11  1  0
 15 17  1  0
 17 18  1  0
 18 19  2  0
 19 20  1  0
 20 21  2  0
 21 22  1  0
 22 17  2  0
 19 23  1  0
 23 24  2  0
 24 25  1  0
 25 26  2  0
 26 20  1  0
 25 27  1  0
 12 30  1  0
 27 28  2  0
 27 29  1  0
M  END
> <Library>
Bioactives

> <Batch>
2012

> <PLATE>
B1002L2012M01

> <WELL>
J21

> <EOS>
EOS100613

> <CCMF_source_vial_barcode>
LV2001695307

> <concentration_mM>
10

> <volume_ul>
30

$$$$
EOS100614
  SciTegic04282016392D

 26 28  0  0  0  0            999 V2000
    7.4270   -3.8260    0.0000 C   0  0
    5.7683   -3.8260    0.0000 N   0  0
    7.0144   -4.5429    0.0000 C   0  0
    7.0144   -3.1133    0.0000 C   0  0
    8.0064   -4.4179    0.0000 C   0  0
    3.2884   -2.4006    0.0000 C   0  0
    2.4632   -2.4006    0.0000 C   0  0
    3.7010   -1.6797    0.0000 O   0  0
    6.1809   -3.1133    0.0000 C   0  0
    6.1809   -4.5429    0.0000 C   0  0
    7.7896   -5.2139    0.0000 C   0  0
    8.7941   -4.2136    0.0000 C   0  0
    2.0506   -1.6880    0.0000 C   0  0
    2.0506   -3.1175    0.0000 C   0  0
    8.0064   -3.2551    0.0000 O   0  0
    9.1567   -5.5890    0.0000 C   0  0
    0.8044   -2.4006    0.0000 C   0  0
    8.3690   -5.7933    0.0000 C   0  0
    1.2170   -1.6880    0.0000 C   0  0
    9.3692   -4.8013    0.0000 C   0  0
    1.2170   -3.1175    0.0000 C   0  0
   -0.0208   -2.4006    0.0000 F   0  0
    9.7318   -6.1684    0.0000 Cl  0  0
    4.9430   -3.8260    0.0000 C   0  0
    4.5304   -3.1133    0.0000 C   0  0
    3.7010   -3.1133    0.0000 C   0  0
  2  9  1  0
  3  1  1  0
  4  1  1  0
  5  1  1  0
  6 26  1  0
  7  6  1  0
  8  6  2  0
  9  4  1  0
 10  3  1  0
 11  5  2  0
 12  5  1  0
 13  7  2  0
 14  7  1  0
 15  1  1  0
 16 20  1  0
 17 21  1  0
 18 11  1  0
 19 13  1  0
 20 12  2  0
 21 14  2  0
 22 17  1  0
 23 16  1  0
 24  2  1  0
 25 24  1  0
 26 25  1  0
  2 10  1  0
 18 16  2  0
 19 17  2  0
M  END
> <Library>
Bioactives

> <Batch>
2012

> <PLATE>
B1002L2012M01

> <WELL>
L21

> <EOS>
EOS100614

> <CCMF_source_vial_barcode>
LV2001695909

> <concentration_mM>
10

> <volume_ul>
30

$$$$
EOS100615
  SciTegic04282016392D

 38 40  0  0  1  0            999 V2000
   -3.7530    3.7784    0.0000 C   0  0
   -3.4830    2.9988    0.0000 C   0  0
   -2.6728    2.8429    0.0000 C   0  0
   -2.4028    2.0634    0.0000 C   0  0
   -1.5926    1.9075    0.0000 N   0  0
   -1.3226    1.1279    0.0000 C   0  0
   -1.8627    0.5043    0.0000 O   0  0
   -0.5125    0.9720    0.0000 C   0  0
   -0.2424    0.1925    0.0000 N   0  0
   -0.7144   -0.4842    0.0000 C   0  0
   -0.2166   -1.1422    0.0000 C   0  0  1  0  0  0
    0.5629   -0.8721    0.0000 C   0  0  2  0  0  0
    0.5470   -0.0473    0.0000 C   0  0  2  0  0  0
    1.2049    0.4504    0.0000 C   0  0
    1.9649    0.1295    0.0000 C   0  0
    2.6229    0.6272    0.0000 C   0  0
    2.5208    1.4459    0.0000 C   0  0
    1.7608    1.7668    0.0000 C   0  0
    1.1029    1.2691    0.0000 C   0  0
    3.1788    1.9436    0.0000 O   0  0
    3.9388    1.6227    0.0000 C   0  0
    1.2396   -1.3441    0.0000 C   0  0
    1.9866   -0.9940    0.0000 O   0  0
    1.1692   -2.1661    0.0000 O   0  0
   -0.4564   -1.9316    0.0000 C   0  0
   -1.2599   -2.1186    0.0000 C   0  0
   -1.4996   -2.9080    0.0000 C   0  0
   -0.9359   -3.5104    0.0000 C   0  0
   -0.1323   -3.3233    0.0000 C   0  0
    0.1074   -2.5339    0.0000 C   0  0
    0.2939   -4.0297    0.0000 O   0  0
   -0.2462   -4.6533    0.0000 C   0  0
   -1.0062   -4.3324    0.0000 O   0  0
   -1.0526    2.5311    0.0000 C   0  0
   -0.2424    2.3752    0.0000 C   0  0
    0.2977    2.9988    0.0000 C   0  0
    1.1078    2.8429    0.0000 C   0  0
    5.9424    0.0000    0.0000 Cl  0  0
  1  2  1  0
  2  3  1  0
  3  4  1  0
  4  5  1  0
  5  6  1  0
  5 34  1  0
  6  7  2  0
  6  8  1  0
  8  9  1  0
  9 13  1  0
  9 10  1  0
 10 11  1  0
 11 12  1  0
 11 25  1  1
 12 13  1  0
 12 22  1  6
 13 14  1  1
 14 19  2  0
 14 15  1  0
 15 16  2  0
 16 17  1  0
 17 18  2  0
 17 20  1  0
 18 19  1  0
 20 21  1  0
 22 23  2  0
 22 24  1  0
 25 30  2  0
 25 26  1  0
 26 27  2  0
 27 28  1  0
 28 33  1  0
 28 29  2  0
 29 30  1  0
 29 31  1  0
 31 32  1  0
 32 33  1  0
 34 35  1  0
 35 36  1  0
 36 37  1  0
M  END
> <Library>
Bioactives

> <Batch>
2012

> <PLATE>
B1002L2012M01

> <WELL>
N21

> <EOS>
EOS100615

> <CCMF_source_vial_barcode>
LV2001695897

> <concentration_mM>
10

> <volume_ul>
30

$$$$
EOS100616
  SciTegic04282016392D

 33 36  0  0  0  0            999 V2000
    5.7059    2.0625    0.0000 C   0  0
    5.7059    1.2375    0.0000 C   0  0
    6.4203    0.8250    0.0000 C   0  0
    7.1348    1.2375    0.0000 C   0  0
    7.1348    2.0625    0.0000 C   0  0
    6.4203    2.4750    0.0000 C   0  0
    7.8493    0.8250    0.0000 N   0  0
    8.5637    1.2375    0.0000 C   0  0
    8.5637    2.0625    0.0000 N   0  0
    7.8493    2.4750    0.0000 C   0  0
    4.9914    2.4750    0.0000 O   0  0
    4.2769    2.0625    0.0000 C   0  0
    4.2769    1.2375    0.0000 C   0  0
    4.9914    0.8250    0.0000 O   0  0
    3.5624    2.4750    0.0000 C   0  0
    2.8480    2.0625    0.0000 C   0  0
    2.8480    1.2375    0.0000 N   0  0
    3.5624    0.8250    0.0000 C   0  0
    9.2782    2.4750    0.0000 F   0  0
    9.2782    3.3000    0.0000 C   0  0
    8.5637    3.7125    0.0000 C   0  0
    7.8493    3.3000    0.0000 N   0  0
    9.9927    3.7125    0.0000 C   0  0
    9.9927    4.5375    0.0000 C   0  0
    9.2782    4.9500    0.0000 C   0  0
    8.5637    4.5375    0.0000 C   0  0
    2.1360    0.8264    0.0000 C   0  0
    1.4240    1.2375    0.0000 C   0  0
    0.7120    0.8264    0.0000 N   0  0
    0.0000    1.2375    0.0000 C   0  0
    1.4240    2.0596    0.0000 O   0  0
    4.9914    0.0000    0.0000 C   0  0
   10.7047    3.3014    0.0000 Cl  0  0
  1  2  2  0
  2  3  1  0
  3  4  2  0
  4  5  1  0
  5  6  2  0
  6  1  1  0
  4  7  1  0
  7  8  2  0
  8  9  1  0
  9 10  2  0
 10  5  1  0
  1 11  1  0
 11 12  1  0
 12 13  1  0
 14  2  1  0
 12 15  1  0
 15 16  1  0
 16 17  1  0
 17 18  1  0
 18 13  1  0
 19 20  1  0
 20 21  2  0
 21 22  1  0
 22 10  1  0
 20 23  1  0
 23 24  2  0
 24 25  1  0
 25 26  2  0
 26 21  1  0
 17 27  1  0
 27 28  1  0
 28 29  1  0
 29 30  1  0
 28 31  2  0
 14 32  1  0
 23 33  1  0
M  END
> <Library>
Bioactives

> <Batch>
2012

> <PLATE>
B1002L2012M01

> <WELL>
P21

> <EOS>
EOS100616

> <CCMF_source_vial_barcode>
LV2001695908

> <concentration_mM>
10

> <volume_ul>
30

$$$$
EOS100617
  SciTegic04282016392D

 28 30  0  0  0  0            999 V2000
    3.1064   -2.5219    0.0000 O   0  0
    3.8204   -2.9436    0.0000 C   0  0  2  0  0  0
    3.8204   -3.7703    0.0000 C   0  0  1  0  0  0
    3.1064   -4.1753    0.0000 C   0  0  2  0  0  0
    2.3841   -3.7703    0.0000 C   0  0  1  0  0  0
    2.3841   -2.9436    0.0000 C   0  0  1  0  0  0
    4.5344   -2.5344    0.0000 C   0  0
    5.2484   -1.2944    0.0000 C   0  0
    4.5344   -1.7077    0.0000 C   0  0
    5.9665   -1.7077    0.0000 C   0  0
    5.2484   -0.4677    0.0000 C   0  0
    5.2484   -2.9478    0.0000 C   0  0
    5.9665   -2.5428    0.0000 C   0  0
    3.1064   -5.0020    0.0000 O   0  0
    4.5344   -4.1837    0.0000 O   0  0
    1.6785   -4.1837    0.0000 O   0  0
    5.9623   -0.0543    0.0000 C   0  0
    6.6805   -1.3027    0.0000 Cl  0  0
    7.3903    0.7724    0.0000 C   0  0
    1.6702   -2.5302    0.0000 C   0  0
    6.6763   -0.4677    0.0000 C   0  0
    5.9540    0.7641    0.0000 C   0  0
    6.6680    1.1858    0.0000 C   0  0
    7.3903   -0.0543    0.0000 C   0  0
    8.1043    1.1858    0.0000 O   0  0
    1.6702   -1.7035    0.0000 O   0  0
    8.8224    0.7724    0.0000 C   0  0
    9.5364    1.1858    0.0000 C   0  0
  2  1  1  1
  3  2  1  0
  4  5  1  0
  5  6  1  0
  6  1  1  0
  2  7  1  0
  8  9  1  0
  9  7  2  0
 10 13  1  0
 11  8  1  0
 12  7  1  0
 13 12  2  0
  4 14  1  1
  3 15  1  6
  5 16  1  6
 17 11  1  0
 18 10  1  0
 19 23  1  0
  6 20  1  1
 21 17  2  0
 22 17  1  0
 23 22  2  0
 24 21  1  0
 25 19  1  0
 26 20  1  0
 27 25  1  0
 28 27  1  0
  3  4  1  0
 10  8  2  0
 24 19  2  0
M  END
> <Library>
Bioactives

> <Batch>
2012

> <PLATE>
B1002L2012M01

> <WELL>
B2

> <EOS>
EOS100617

> <CCMF_source_vial_barcode>
LV2001695925

> <concentration_mM>
10

> <volume_ul>
30

$$$$
EOS100618
  SciTegic04282016392D

 36 38  0  0  0  0            999 V2000
    8.3222    1.6342    0.0000 C   0  0
    7.6077    1.2217    0.0000 N   0  0
    8.3222    2.4592    0.0000 O   0  0
    9.0367    1.2217    0.0000 O   0  0
    6.1788    1.2217    0.0000 C   0  0
    6.8933    1.6342    0.0000 C   0  0  2  0  0  0
    6.8933    2.4592    0.0000 C   0  0
    5.4644    1.6342    0.0000 N   0  0
    4.7499    1.2217    0.0000 C   0  0
    4.0355    1.6499    0.0000 N   0  0
    3.3189    1.2492    0.0000 C   0  0
    3.3075    0.4203    0.0000 C   0  0
    4.0174    0.0000    0.0000 C   0  0
    4.7363    0.4046    0.0000 N   0  0
    1.3015    1.9582    0.0000 N   0  0
    1.7202    2.6724    0.0000 N   0  0
    2.5286    2.4951    0.0000 C   0  0
    2.6044    1.6617    0.0000 C   0  0
    1.8513    1.3393    0.0000 C   0  0
    0.4804    1.8774    0.0000 C   0  0
    0.1399    1.1260    0.0000 C   0  0
    0.0000    2.5481    0.0000 C   0  0
    3.1464    3.0417    0.0000 C   0  0
    2.9795    3.8526    0.0000 C   0  0
    3.5833    4.3995    0.0000 C   0  0
    4.3841    4.1416    0.0000 C   0  0
    4.5509    3.3309    0.0000 C   0  0
    3.9312    2.7787    0.0000 C   0  0
    3.9943    5.7897    0.0000 S   0  0
    4.5777    5.2063    0.0000 O   0  0
    3.4110    6.3730    0.0000 O   0  0
    3.4110    5.2063    0.0000 N   0  0
    4.5777    6.3730    0.0000 C   0  0
    2.1958    4.1102    0.0000 F   0  0
    5.3334    3.0698    0.0000 Cl  0  0
    9.7511    1.6342    0.0000 C   0  0
  1  2  1  0
  1  3  2  0
  1  4  1  0
  6  5  1  0
  6  7  1  6
  9 10  2  0
 10 11  1  0
 11 12  2  0
 12 13  1  0
 13 14  2  0
  9 14  1  0
 15 16  1  0
 16 17  2  0
 17 18  1  0
 18 19  2  0
 15 19  1  0
 20 21  1  0
 20 22  1  0
 15 20  1  0
 23 24  2  0
 24 25  1  0
 25 26  2  0
 26 27  1  0
 27 28  2  0
 23 28  1  0
 29 30  2  0
 29 31  2  0
 29 32  1  0
 29 33  1  0
 25 32  1  0
 24 34  1  0
 27 35  1  0
 17 23  1  0
 11 18  1  0
  8  9  1  0
  5  8  1  0
  6  2  1  0
  4 36  1  0
M  END
> <Library>
Bioactives

> <Batch>
2012

> <PLATE>
B1002L2012M01

> <WELL>
D2

> <EOS>
EOS100618

> <CCMF_source_vial_barcode>
LV2001695924

> <concentration_mM>
10

> <volume_ul>
30

$$$$
EOS100619
  SciTegic04282016392D

 31 35  0  0  0  0            999 V2000
    6.0223   -1.4438    0.0000 O   0  0
    5.3078   -1.0313    0.0000 C   0  0
    4.5934   -1.4438    0.0000 N   0  0
    3.8789   -1.0313    0.0000 C   0  0
    3.8789   -0.2063    0.0000 C   0  0
    3.1644    0.2062    0.0000 C   0  0
    2.4500   -0.2062    0.0000 C   0  0
    2.4500   -1.0313    0.0000 C   0  0
    1.7355   -1.4438    0.0000 O   0  0
    1.0210   -1.0313    0.0000 C   0  0
    0.3065   -1.4438    0.0000 C   0  0
   -0.4079   -1.0313    0.0000 C   0  0
   -1.1224   -1.4438    0.0000 C   0  0
   -1.8369   -1.0313    0.0000 N   0  0
   -2.5513   -1.4438    0.0000 C   0  0
   -3.2658   -1.0313    0.0000 C   0  0
   -3.2658   -0.2062    0.0000 N   0  0
   -3.9803    0.2062    0.0000 C   0  0
   -4.6947   -0.2062    0.0000 C   0  0
   -4.8663   -1.0132    0.0000 C   0  0
   -5.6868   -1.0995    0.0000 C   0  0
   -6.0223   -0.3458    0.0000 S   0  0
   -5.4092    0.2062    0.0000 C   0  0
   -5.4092    1.0313    0.0000 C   0  0
   -4.6947    1.4438    0.0000 C   0  0
   -3.9803    1.0313    0.0000 C   0  0
   -2.5513    0.2062    0.0000 C   0  0
   -1.8369   -0.2063    0.0000 C   0  0
    3.1644   -1.4438    0.0000 C   0  0
    4.5934    0.2062    0.0000 C   0  0
    5.3078   -0.2063    0.0000 C   0  0
  1  2  2  0
  2  3  1  0
  3  4  1  0
  4  5  1  0
  5  6  2  0
  6  7  1  0
  7  8  2  0
  8  9  1  0
  9 10  1  0
 10 11  1  0
 11 12  1  0
 12 13  1  0
 13 14  1  0
 14 15  1  0
 15 16  1  0
 16 17  1  0
 17 18  1  0
 18 19  2  0
 19 20  1  0
 20 21  2  0
 21 22  1  0
 19 23  1  0
 22 23  1  0
 23 24  2  0
 24 25  1  0
 25 26  2  0
 18 26  1  0
 17 27  1  0
 27 28  1  0
 14 28  1  0
  8 29  1  0
  4 29  2  0
  5 30  1  0
 30 31  2  0
  2 31  1  0
M  END
> <Library>
Bioactives

> <Batch>
2012

> <PLATE>
B1002L2012M01

> <WELL>
F2

> <EOS>
EOS100619

> <CCMF_source_vial_barcode>
LV2001696589

> <concentration_mM>
10

> <volume_ul>
30

$$$$
EOS100620
  SciTegic04282016392D

 19 19  0  0  0  0            999 V2000
    2.2417   -6.1250    0.0000 C   0  0
    2.9542   -5.7042    0.0000 C   0  0
    6.5125   -4.4667    0.0000 C   0  0
    2.2375   -6.9500    0.0000 C   0  0
    3.6667   -6.1167    0.0000 N   0  0
    1.5250   -5.7125    0.0000 C   0  0
    2.2292   -7.7750    0.0000 N   0  0
    5.8000   -4.8792    0.0000 C   0  0
    2.9500   -4.8792    0.0000 O   0  0
    7.2250   -4.8792    0.0000 F   0  0
    6.5042   -3.6417    0.0000 F   0  0
    7.2250   -4.0500    0.0000 F   0  0
    5.0792   -4.4750    0.0000 C   0  0
    5.8000   -5.7042    0.0000 C   0  0
    4.3792   -5.7000    0.0000 C   0  0
    1.5167   -4.8875    0.0000 O   0  0
    5.0875   -6.1125    0.0000 C   0  0
    4.3792   -4.8792    0.0000 C   0  0
    0.8042   -6.1167    0.0000 C   0  0
  2  1  1  0
  3  8  1  0
  4  1  1  0
  5  2  1  0
  6  1  2  0
  7  4  3  0
  8 13  2  0
  9  2  2  0
 10  3  1  0
 11  3  1  0
 12  3  1  0
 13 18  1  0
 14 17  2  0
 15  5  1  0
 16  6  1  0
 17 15  1  0
 18 15  2  0
 19  6  1  0
 14  8  1  0
M  END
> <Library>
Bioactives

> <Batch>
2012

> <PLATE>
B1002L2012M01

> <WELL>
H2

> <EOS>
EOS100620

> <CCMF_source_vial_barcode>
LV2001696000

> <concentration_mM>
10

> <volume_ul>
30

$$$$
EOS100621
  SciTegic04282016392D

 39 36  0  0  0  0            999 V2000
    2.6675   -2.3146    0.0000 C   0  0
    3.3734    0.5729    0.0000 N   0  3
    4.7300   -1.2146    0.0000 N   0  3
    4.0975   -5.6146    0.0000 N   0  3
    1.9525   -1.9021    0.0000 C   0  0
    2.6675   -3.1396    0.0000 C   0  0
    3.8362    1.3154    0.0000 I   0  5
    5.2800   -0.6096    0.0000 I   0  5
    4.6934   -5.0371    0.0000 I   0  5
    3.3871   -1.8975    0.0000 O   0  0
    3.3871   -3.5521    0.0000 O   0  0
    1.9525   -1.0771    0.0000 O   0  0
    3.3871   -1.0725    0.0000 C   0  0
    3.3871   -4.3771    0.0000 C   0  0
    2.6584   -0.6646    0.0000 C   0  0
    2.6584    0.1604    0.0000 C   0  0
    4.0975   -4.7896    0.0000 C   0  0
    4.0975   -0.6600    0.0000 C   0  0
    4.7850   -0.3896    0.0000 C   0  0
    5.5550   -1.2696    0.0000 C   0  0
    4.0884    0.9900    0.0000 C   0  0
    2.9562    1.2925    0.0000 C   0  0
    3.7859   -0.1421    0.0000 C   0  0
    4.6750   -2.0396    0.0000 C   0  0
    4.9225   -5.6146    0.0000 C   0  0
    3.2725   -5.6146    0.0000 C   0  0
    4.0975   -6.4396    0.0000 C   0  0
    1.2421   -3.1396    0.0000 C   0  0
    1.2421   -2.3146    0.0000 C   0  0
    1.9525   -3.5521    0.0000 C   0  0
    5.3534   -2.5025    0.0000 C   0  0
    3.3687    2.0075    0.0000 C   0  0
    4.1021    0.0641    0.0000 C   0  0
    4.8034    0.5775    0.0000 C   0  0
    5.3350   -6.3296    0.0000 C   0  0
    6.0134   -0.5912    0.0000 C   0  0
    2.8600   -4.9134    0.0000 C   0  0
    3.3734   -0.8571    0.0000 C   0  0
    3.3871   -6.8521    0.0000 C   0  0
  2 16  1  0
  3 18  1  0
  4 17  1  0
  5  1  2  0
  6  1  1  0
 10  1  1  0
 11  6  1  0
 12  5  1  0
 13 10  1  0
 14 11  1  0
 15 12  1  0
 16 15  1  0
 17 14  1  0
 18 13  1  0
 19  3  1  0
 20  3  1  0
 21  2  1  0
 22  2  1  0
 23  2  1  0
 24  3  1  0
 25  4  1  0
 26  4  1  0
 27  4  1  0
 28 30  1  0
 29  5  1  0
 30  6  2  0
 31 24  1  0
 32 22  1  0
 33 19  1  0
 34 21  1  0
 35 25  1  0
 36 20  1  0
 37 26  1  0
 38 23  1  0
 39 27  1  0
 29 28  2  0
M  CHG  6   2   1   3   1   4   1   7  -1   8  -1   9  -1
M  END
> <Library>
Bioactives

> <Batch>
2012

> <PLATE>
B1002L2012M01

> <WELL>
J2

> <EOS>
EOS100621

> <CCMF_source_vial_barcode>
LV2001695922

> <concentration_mM>
10

> <volume_ul>
30

$$$$
EOS100622
  SciTegic04282016392D

 37 40  0  0  1  0            999 V2000
    0.8239   -5.0631    0.0000 C   0  0
    0.8239   -5.8889    0.0000 C   0  0
    1.5378   -6.3017    0.0000 C   0  0
    2.2519   -5.8889    0.0000 C   0  0
    2.2519   -5.0631    0.0000 C   0  0
    1.5378   -4.6499    0.0000 N   0  0
    2.9688   -4.6499    0.0000 N   0  0
    3.6830   -5.0631    0.0000 C   0  0
    2.9688   -3.8242    0.0000 C   0  0
    4.3970   -4.6499    0.0000 C   0  0
    5.1139   -5.0631    0.0000 O   0  0
    5.8279   -4.6499    0.0000 C   0  0
    6.5419   -5.0631    0.0000 C   0  0
    7.2559   -4.6499    0.0000 C   0  0
    7.2559   -3.8242    0.0000 C   0  0
    6.5419   -3.4112    0.0000 C   0  0
    5.8279   -3.8242    0.0000 C   0  0
    7.9728   -3.4112    0.0000 C   0  0
    8.6870   -3.8242    0.0000 C   0  0  2  0  0  0
    8.6870   -4.6499    0.0000 N   0  0
    9.7135   -5.0631    0.0000 C   0  0
    9.7135   -5.8889    0.0000 C   0  0
   10.4275   -6.3017    0.0000 C   0  0
   11.1388   -5.8889    0.0000 C   0  0
   11.1388   -5.0631    0.0000 C   0  0
   10.4275   -4.6528    0.0000 C   0  0
    8.9996   -6.3017    0.0000 C   0  0
    8.9996   -7.1278    0.0000 C   0  0
    8.2855   -7.5406    0.0000 C   0  0
    8.2855   -8.3664    0.0000 C   0  0
    8.9996   -8.7822    0.0000 C   0  0
    9.7135   -8.3664    0.0000 C   0  0
    9.7135   -7.5406    0.0000 C   0  0
    8.2855   -5.8889    0.0000 O   0  0
    9.4039   -3.4112    0.0000 C   0  0
    9.4047   -2.5883    0.0000 O   0  0
   10.1163   -3.8235    0.0000 O   0  0
  5  6  1  0
  1  6  2  0
  5  7  1  0
  7  8  1  0
  7  9  1  0
  8 10  1  0
 10 11  1  0
 11 12  1  0
 12 13  2  0
 13 14  1  0
 14 15  2  0
 15 16  1  0
 16 17  2  0
 12 17  1  0
 15 18  1  0
 19 18  1  0
 19 20  1  1
 20 21  1  0
 21 22  2  0
 22 23  1  0
 23 24  2  0
 24 25  1  0
 25 26  2  0
 21 26  1  0
 22 27  1  0
 27 28  1  0
 28 29  2  0
 29 30  1  0
 30 31  2  0
 31 32  1  0
 32 33  2  0
 28 33  1  0
 27 34  2  0
 19 35  1  0
  1  2  1  0
  2  3  2  0
  3  4  1  0
  4  5  2  0
 35 36  2  0
 35 37  1  0
M  END
> <Library>
Bioactives

> <Batch>
2012

> <PLATE>
B1002L2012M01

> <WELL>
L2

> <EOS>
EOS100622

> <CCMF_source_vial_barcode>
LV2001695918

> <concentration_mM>
10

> <volume_ul>
30

$$$$
EOS100623
  SciTegic04282016392D

 62 66  0  0  0  0            999 V2000
    2.5161   -1.8778    0.0000 S   0  0
    6.1374    3.1450    0.0000 S   0  0
    2.6964    1.9425    0.0000 C   0  0
    3.4133    1.5355    0.0000 C   0  0
   -2.9507   -1.9333    0.0000 S   0  0
    0.5550    1.5263    0.0000 C   0  0
    0.4718    0.7030    0.0000 O   0  0
    1.9841    1.5355    0.0000 C   0  0
    4.1256    1.9425    0.0000 N   0  0
    1.2673    1.9425    0.0000 C   0  0
   -0.2312    1.8870    0.0000 C   0  0
    3.4133    0.7030    0.0000 N   0  0
    3.2329   -2.2894    0.0000 C   0  0
    6.8451    2.7334    0.0000 C   0  0
   -0.3330    0.5273    0.0000 C   0  0
    5.5500    0.3006    0.0000 C   0  0
   -0.7862    1.2718    0.0000 C   0  0
    4.8332    0.7030    0.0000 C   0  0
    5.4252    2.7334    0.0000 O   0  0
    6.7202    3.7324    0.0000 O   0  0
    1.8038   -2.2941    0.0000 O   0  0
    3.0988   -1.2950    0.0000 O   0  0
    2.6964    2.7704    0.0000 C   0  0
    3.4133    3.1866    0.0000 N   0  0
    4.1256    2.7704    0.0000 C   0  0
   -2.6177   -1.1794    0.0000 C   0  0
    4.1256    0.2914    0.0000 C   0  0
    5.5547   -0.5319    0.0000 C   0  0
   -2.4512   -2.5946    0.0000 O   0  0
   -3.5936   -1.4291    0.0000 O   0  0
    6.2623   -0.9435    0.0000 O   0  0
    6.1374    3.9775    0.0000 O   0  0
    2.5161   -1.0545    0.0000 O   0  0
    1.2673    2.7704    0.0000 C   0  0
    1.9888    3.1866    0.0000 C   0  0
    3.9452   -1.8778    0.0000 C   0  0
    6.8451    1.9101    0.0000 C   0  0
    7.5619    3.1496    0.0000 C   0  0
    3.2329   -3.1127    0.0000 C   0  0
    4.8332   -0.9435    0.0000 C   0  0
    6.2623    0.7168    0.0000 Cl  0  0
    4.1256   -0.5319    0.0000 C   0  0
    6.9792   -0.5273    0.0000 C   0  0
    8.3991   -0.5180    0.0000 C   0  0
    9.1159   -0.9296    0.0000 C   0  0
   -3.7694   -2.0304    0.0000 C   0  0
    7.6915   -0.9343    0.0000 C   0  0
   -1.4800   -0.3238    0.0000 N   0  0
    7.5619    1.4938    0.0000 C   0  0
    8.2742    2.7426    0.0000 C   0  0
    4.6620   -2.2894    0.0000 C   0  0
    3.9452   -3.5289    0.0000 C   0  0
    4.6620   -3.1127    0.0000 C   0  0
    8.2742    1.9101    0.0000 C   0  0
    9.8282   -0.5180    0.0000 F   0  0
   -0.6613   -0.2267    0.0000 C   0  0
   -1.8038   -1.0823    0.0000 C   0  0
    8.3991   -2.1784    0.0000 C   0  0
    9.1206   -1.7621    0.0000 C   0  0
    7.6915   -1.7621    0.0000 C   0  0
    5.3743   -3.5289    0.0000 C   0  0
    8.9957    1.4938    0.0000 C   0  0
  4  3  2  0
  5 26  1  0
  6 10  1  0
  7  6  1  0
  8  3  1  0
  9  4  1  0
 10  8  2  0
 11  6  2  0
 12  4  1  0
 13  1  1  0
 14  2  1  0
 15  7  1  0
 16 18  2  0
 17 11  1  0
 18 27  1  0
 19  2  2  0
 20  2  2  0
 21  1  2  0
 22  1  2  0
 23  3  1  0
 24 23  2  0
 25 24  1  0
 26 57  1  0
 27 12  1  0
 28 40  2  0
 29  5  2  0
 30  5  2  0
 31 28  1  0
 32  2  1  0
 33  1  1  0
 34 35  2  0
 35 23  1  0
 36 13  2  0
 37 14  2  0
 38 14  1  0
 39 13  1  0
 40 42  1  0
 41 16  1  0
 42 27  2  0
 43 31  1  0
 44 47  2  0
 45 44  1  0
 46  5  1  0
 47 43  1  0
 48 56  1  0
 49 37  1  0
 50 38  2  0
 51 36  1  0
 52 39  2  0
 53 52  1  0
 54 50  1  0
 55 45  1  0
 56 15  1  0
 57 48  1  0
 58 60  2  0
 59 58  1  0
 60 47  1  0
 61 53  1  0
 62 54  1  0
 51 53  2  0
 49 54  2  0
 34 10  1  0
  9 25  2  0
 17 15  2  0
 16 28  1  0
 45 59  2  0
M  END
> <Library>
Bioactives

> <Batch>
2012

> <PLATE>
B1002L2012M01

> <WELL>
N2

> <EOS>
EOS100623

> <CCMF_source_vial_barcode>
LV2001696615

> <concentration_mM>
10

> <volume_ul>
30

$$$$
EOS100624
  SciTegic04282016392D

 23 24  0  0  0  0            999 V2000
   -1.0717   -0.5352    0.0000 C   0  0
   -1.0717    0.2897    0.0000 C   0  0
   -1.7861    0.7022    0.0000 C   0  0
   -2.5006    0.2897    0.0000 C   0  0
   -1.7861   -0.9478    0.0000 O   0  0
   -1.7861    1.5273    0.0000 O   0  0
   -0.3572   -0.9478    0.0000 C   0  0
    0.3965   -0.6122    0.0000 C   0  0
    0.9485   -1.2252    0.0000 C   0  0
    0.5359   -1.9397    0.0000 C   0  0
   -0.2710   -1.7682    0.0000 S   0  0
   -3.2151   -0.1227    0.0000 F   0  0
   -2.5006   -0.5352    0.0000 F   0  0
   -3.2151    0.7022    0.0000 F   0  0
   -0.3572    0.7022    0.0000 N   0  0
    0.3572    0.2897    0.0000 N   0  0
    1.0717    0.7022    0.0000 C   0  0
    1.7861    0.2897    0.0000 C   0  0
    2.5006    0.7022    0.0000 C   0  0
    2.5006    1.5273    0.0000 C   0  0
    1.7861    1.9397    0.0000 C   0  0
    1.0717    1.5273    0.0000 C   0  0
    3.2151    0.2897    0.0000 C   0  0
  1  2  1  0
  2  3  1  0
  3  4  1  0
  1  5  2  0
  3  6  2  0
  7  8  2  0
  8  9  1  0
  9 10  2  0
 10 11  1  0
  7 11  1  0
  1  7  1  0
  4 12  1  0
  4 13  1  0
  4 14  1  0
 15 16  1  0
 17 18  2  0
 18 19  1  0
 19 20  2  0
 20 21  1  0
 21 22  2  0
 17 22  1  0
 19 23  1  0
 16 17  1  0
  2 15  2  0
M  END
> <Library>
Bioactives

> <Batch>
2012

> <PLATE>
B1002L2012M01

> <WELL>
P2

> <EOS>
EOS100624

> <CCMF_source_vial_barcode>
LV2001696017

> <concentration_mM>
10

> <volume_ul>
30

$$$$
EOS100625
  SciTegic04282016392D

  9  7  0  0  0  0            999 V2000
   -3.6317    2.7500    0.0000 N   0  3
   -4.3462    2.3376    0.0000 C   0  0
   -5.0607    2.7501    0.0000 C   0  0
   -5.7751    2.3376    0.0000 O   0  0
   -5.0607    3.5751    0.0000 O   0  0
   -2.9173    3.1623    0.0000 C   0  0
   -3.2193    2.0355    0.0000 C   0  0
   -4.0442    3.4644    0.0000 C   0  0
   -0.8250    2.3376    0.0000 Cl  0  5
  1  2  1  0
  2  3  1  0
  3  4  2  0
  3  5  1  0
  1  6  1  0
  1  7  1  0
  1  8  1  0
M  CHG  2   1   1   9  -1
M  END
> <Library>
Bioactives

> <Batch>
2012

> <PLATE>
B1002L2012M01

> <WELL>
B4

> <EOS>
EOS100625

> <CCMF_source_vial_barcode>
LV2001695448

> <concentration_mM>
10

> <volume_ul>
30

$$$$
EOS100626
  SciTegic04282016392D

 27 30  0  0  0  0            999 V2000
   -0.1273   -2.0684    0.0000 N   0  0
   -0.8411   -1.6593    0.0000 C   0  0
   -0.8411   -0.8327    0.0000 N   0  0
   -0.1273   -0.4153    0.0000 C   0  0
    0.5823   -1.6593    0.0000 N   0  0
    0.5823   -0.8327    0.0000 C   0  0
    1.3713   -0.5740    0.0000 C   0  0
    1.8556   -1.2419    0.0000 C   0  0
    1.3713   -1.9140    0.0000 C   0  0
   -0.1231    0.4111    0.0000 O   0  0
   -0.8328    0.8286    0.0000 C   0  0
   -1.5466    0.4237    0.0000 C   0  0
   -1.5341    2.0684    0.0000 C   0  0
   -0.8203    1.6509    0.0000 C   0  0
   -2.2520    1.6594    0.0000 C   0  0
   -2.2520    0.8411    0.0000 C   0  0
   -3.0368    0.5907    0.0000 C   0  0
   -3.5168    1.2586    0.0000 C   0  0
   -3.0326    1.9182    0.0000 N   0  0
   -1.5507   -0.3986    0.0000 F   0  0
   -4.3392    1.2627    0.0000 C   0  0
    1.6301    0.2150    0.0000 C   0  0
    2.6820   -1.2377    0.0000 O   0  0
    3.0954   -0.5197    0.0000 C   0  0
    3.9218   -0.5156    0.0000 C   0  0  1  0  0  0
    4.3351    0.2025    0.0000 C   0  0
    4.3392   -1.2294    0.0000 O   0  0
  5  1  1  0
  1  2  2  0
  2  3  1  0
  3  4  2  0
  4 10  1  0
  6  4  1  0
  9  5  1  0
  5  6  1  0
  6  7  2  0
  7  8  1  0
  7 22  1  0
  8  9  2  0
  8 23  1  0
 10 11  1  0
 11 14  2  0
 11 12  1  0
 12 16  2  0
 12 20  1  0
 15 13  2  0
 13 14  1  0
 15 16  1  0
 19 15  1  0
 16 17  1  0
 17 18  2  0
 18 19  1  0
 18 21  1  0
 23 24  1  0
 25 24  1  0
 25 26  1  0
 25 27  1  1
M  END
> <Library>
Bioactives

> <Batch>
2012

> <PLATE>
B1002L2012M01

> <WELL>
D4

> <EOS>
EOS100626

> <CCMF_source_vial_barcode>
LV2001696613

> <concentration_mM>
10

> <volume_ul>
30

$$$$
EOS100627
  SciTegic04282016392D

 16 16  0  0  0  0            999 V2000
    2.2740    3.0187    0.0000 C   0  0
    2.9667    3.4171    0.0000 S   0  0
    1.5638    0.9675    0.0000 S   0  0
    1.5638    3.4344    0.0000 C   0  0
    1.5638    1.7741    0.0000 C   0  0
    2.2740    2.1898    0.0000 C   0  0
    0.8512    3.0187    0.0000 C   0  0
    0.8512    2.1898    0.0000 C   0  0
    2.4051    4.3821    0.0000 O   0  0
    3.5260    4.3821    0.0000 O   0  0
    1.0046    0.0000    0.0000 O   0  0
    0.5691    0.9675    0.0000 O   0  0
    3.8649    2.8999    0.0000 N   0  0
    2.4620    0.4503    0.0000 N   0  0
    1.5638    4.2386    0.0000 Cl  0  0
    0.0000    3.5086    0.0000 Cl  0  0
  2  1  1  0
  3  5  1  0
  4  1  2  0
  5  6  2  0
  6  1  1  0
  7  4  1  0
  8  7  2  0
  9  2  2  0
 10  2  2  0
 11  3  2  0
 12  3  2  0
 13  2  1  0
 14  3  1  0
 15  4  1  0
 16  7  1  0
  8  5  1  0
M  END
> <Library>
Bioactives

> <Batch>
2012

> <PLATE>
B1002L2012M01

> <WELL>
F4

> <EOS>
EOS100627

> <CCMF_source_vial_barcode>
LV2001696574

> <concentration_mM>
10

> <volume_ul>
30

$$$$
EOS100628
  SciTegic04282016392D

 25 28  0  0  0  0            999 V2000
    0.1775    2.4786    0.0000 C   0  0
   -0.5365    2.0662    0.0000 C   0  0
   -0.5365    1.2412    0.0000 C   0  0
    0.1775    0.8250    0.0000 C   0  0
    0.8918    1.2412    0.0000 C   0  0
    0.8918    2.0662    0.0000 C   0  0
    0.1775    0.0000    0.0000 C   0  0
   -0.6472    0.0000    0.0000 C   0  0
    0.1775   -0.8250    0.0000 C   0  0
    1.0025    0.0000    0.0000 N   0  0
   -0.5365   -1.2374    0.0000 C   0  0
   -0.5365   -2.0624    0.0000 C   0  0
    0.1775   -2.4786    0.0000 C   0  0
    0.8918   -2.0624    0.0000 C   0  0
    0.8918   -1.2374    0.0000 C   0  0
   -1.0598    0.7143    0.0000 C   0  0
   -1.8848    0.7143    0.0000 C   0  0
   -2.2972    0.0000    0.0000 C   0  0
   -1.8848   -0.7179    0.0000 C   0  0
   -1.0598   -0.7179    0.0000 C   0  0
    1.4152   -0.7143    0.0000 N   0  0
    2.2172   -0.5424    0.0000 C   0  0
    2.2972    0.2712    0.0000 C   0  0
    1.5450    0.5958    0.0000 C   0  0
    1.7168   -1.2374    0.0000 Cl  0  0
  1  2  2  0
  2  3  1  0
  3  4  2  0
  4  5  1  0
  5  6  2  0
  1  6  1  0
  4  7  1  0
  7  8  1  0
  7  9  1  0
  7 10  1  0
  9 11  2  0
 11 12  1  0
 12 13  2  0
 13 14  1  0
 14 15  2  0
  9 15  1  0
  8 16  2  0
 16 17  1  0
 17 18  2  0
 18 19  1  0
 19 20  2  0
  8 20  1  0
 10 21  1  0
 21 22  2  0
 22 23  1  0
 23 24  2  0
 10 24  1  0
 15 25  1  0
M  END
> <Library>
Bioactives

> <Batch>
2012

> <PLATE>
B1002L2012M01

> <WELL>
H4

> <EOS>
EOS100628

> <CCMF_source_vial_barcode>
LV2001695997

> <concentration_mM>
10

> <volume_ul>
30

$$$$
EOS100629
  SciTegic04282016392D

 27 29  0  0  0  0            999 V2000
    2.9375   -5.2417    0.0000 C   0  0
    4.3667   -4.4042    0.0000 C   0  0  1  0  0  0
    9.1750   -4.4917    0.0000 S   0  0
    4.3667   -5.2417    0.0000 C   0  0  2  0  0  0
    3.6500   -3.9917    0.0000 C   0  0
    5.0792   -5.6542    0.0000 N   0  0
    2.9375   -4.4042    0.0000 C   0  0
    3.6500   -5.6542    0.0000 C   0  0
    2.1542   -5.4917    0.0000 C   0  0
    1.6042   -4.5542    0.0000 N   0  0
    2.2167   -3.9917    0.0000 C   0  0
    5.8000   -5.2417    0.0000 C   0  0
    5.0792   -3.9917    0.0000 C   0  0
    8.4542   -4.0792    0.0000 O   0  0
    9.8875   -4.0792    0.0000 O   0  0
    5.8000   -4.4042    0.0000 C   0  0  1  0  0  0
    9.1667   -3.6667    0.0000 O   0  0
    9.1750   -5.3167    0.0000 C   0  0
    3.6500   -3.1667    0.0000 C   0  0
    5.0792   -6.4792    0.0000 C   0  0
    6.5125   -3.1542    0.0000 S   0  0
    6.5167   -3.9917    0.0000 C   0  0
    2.9375   -2.7542    0.0000 C   0  0
    2.2167   -3.1667    0.0000 C   0  0
    7.2250   -2.7417    0.0000 C   0  0
    5.7917   -6.8917    0.0000 C   0  0
    5.7917   -7.7167    0.0000 C   0  0
  2  4  1  0
  4  8  1  0
  5  7  2  0
  4  6  1  6
  7  1  1  0
  8  1  1  0
  9  1  2  0
 10  9  1  0
 11  7  1  0
 12  6  1  0
  2 13  1  1
 14  3  2  0
 15  3  2  0
 16 13  1  0
 17  3  1  0
 18  3  1  0
 19  5  1  0
 20  6  1  0
 21 22  1  0
 16 22  1  1
 23 19  2  0
 24 11  2  0
 25 21  1  0
 26 20  1  0
 27 26  1  0
  2  5  1  0
 11 10  1  0
 23 24  1  0
 16 12  1  0
M  END
> <Library>
Bioactives

> <Batch>
2012

> <PLATE>
B1002L2012M01

> <WELL>
J4

> <EOS>
EOS100629

> <CCMF_source_vial_barcode>
LV2001696572

> <concentration_mM>
10

> <volume_ul>
30

$$$$
EOS100630
  SciTegic04282016392D

 34 37  0  0  0  0            999 V2000
    7.6436  -10.0594    0.0000 F   0  0
    6.8873   -9.7298    0.0000 C   0  0
    6.5577  -10.4860    0.0000 F   0  0
    6.1311   -9.4001    0.0000 F   0  0
    7.2170   -8.9735    0.0000 C   0  0
    8.0508   -8.8959    0.0000 C   0  0
    6.7322   -8.2948    0.0000 C   0  0
    8.3805   -8.1396    0.0000 C   0  0
    7.0619   -7.5385    0.0000 C   0  0
    7.8957   -7.4609    0.0000 C   0  0
    8.2254   -6.7047    0.0000 C   0  0
    9.0592   -6.6271    0.0000 C   0  0
    9.3889   -5.8708    0.0000 C   0  0
    8.9816   -5.1533    0.0000 O   0  0
   10.2033   -5.6963    0.0000 N   0  0
    9.5440   -4.5328    0.0000 C   0  0
   10.2809   -4.8625    0.0000 C   0  0
   10.9984   -4.4552    0.0000 C   0  0
   11.7159   -4.8625    0.0000 O   0  0
   12.4333   -4.4552    0.0000 C   0  0
   13.1508   -4.8625    0.0000 C   0  0
   12.4333   -3.6214    0.0000 C   0  0
   13.8683   -4.4552    0.0000 C   0  0
   13.1508   -3.2142    0.0000 C   0  0
   13.8683   -3.6214    0.0000 C   0  0
   14.5858   -3.2142    0.0000 C   0  0
   15.3033   -3.6214    0.0000 C   0  0
   16.0208   -3.2142    0.0000 C   0  0
   16.7383   -3.6214    0.0000 C   0  0
   17.4558   -3.2142    0.0000 N   0  0
   18.2121   -3.5438    0.0000 N   0  0
   17.5333   -2.3803    0.0000 C   0  0
   18.7744   -2.9233    0.0000 N   0  0
   18.3478   -2.2219    0.0000 C   0  0
  1  2  1  0
  2  3  1  0
  2  4  1  0
  2  5  1  0
  5  6  2  0
  5  7  1  0
  6  8  1  0
  7  9  2  0
  8 10  2  0
 10 11  1  0
 11 12  2  0
 12 13  1  0
 13 14  1  0
 13 15  2  0
 14 16  1  0
 15 17  1  0
 17 18  1  0
 18 19  1  0
 19 20  1  0
 20 21  2  0
 20 22  1  0
 21 23  1  0
 22 24  2  0
 23 25  2  0
 25 26  1  0
 26 27  1  0
 27 28  1  0
 28 29  1  0
 29 30  1  0
 30 31  1  0
 30 32  1  0
 31 33  2  0
 32 34  2  0
  9 10  1  0
 16 17  2  0
 24 25  1  0
 33 34  1  0
M  END
> <Library>
Bioactives

> <Batch>
2012

> <PLATE>
B1002L2012M01

> <WELL>
L4

> <EOS>
EOS100630

> <CCMF_source_vial_barcode>
LV2001696555

> <concentration_mM>
10

> <volume_ul>
30

$$$$
EOS100631
  SciTegic04282016392D

 28 30  0  0  0  0            999 V2000
    2.8579    2.4750    0.0000 C   0  0
    2.8579    1.6500    0.0000 C   0  0
    3.6425    1.3951    0.0000 N   0  0
    4.1274    2.0625    0.0000 C   0  0
    3.6425    2.7299    0.0000 N   0  0
    4.9524    2.0625    0.0000 C   0  0
    5.3650    1.3481    0.0000 C   0  0
    6.1900    1.3481    0.0000 C   0  0
    6.6025    2.0625    0.0000 C   0  0
    6.1900    2.7770    0.0000 C   0  0
    5.3650    2.7770    0.0000 C   0  0
    7.4275    2.0625    0.0000 S   0  0
    7.8400    1.3481    0.0000 C   0  0
    7.8400    2.7770    0.0000 O   0  0
    2.1434    1.2375    0.0000 C   0  0
    2.1434    2.8875    0.0000 C   0  0
    2.1434    3.7125    0.0000 C   0  0
    1.4290    4.1250    0.0000 C   0  0
    0.7145    3.7125    0.0000 N   0  0
    0.7145    2.8875    0.0000 C   0  0
    1.4290    2.4750    0.0000 C   0  0
    1.4290    1.6500    0.0000 C   0  0
    0.7145    1.2375    0.0000 C   0  0
    0.7145    0.4125    0.0000 C   0  0
    1.4290    0.0000    0.0000 C   0  0
    2.1434    0.4125    0.0000 C   0  0
    0.0000    0.0000    0.0000 F   0  0
    4.1638    0.1547    0.0000 Cl  0  0
  1  2  2  0
  2  3  1  0
  3  4  2  0
  4  5  1  0
  5  1  1  0
  4  6  1  0
  6  7  2  0
  7  8  1  0
  8  9  2  0
  9 10  1  0
 10 11  2  0
 11  6  1  0
  9 12  1  0
 12 13  1  0
 12 14  2  0
  2 15  1  0
  1 16  1  0
 16 17  2  0
 17 18  1  0
 18 19  2  0
 19 20  1  0
 20 21  2  0
 21 16  1  0
 15 22  2  0
 22 23  1  0
 23 24  2  0
 24 25  1  0
 25 26  2  0
 26 15  1  0
 24 27  1  0
M  END
> <Library>
Bioactives

> <Batch>
2012

> <PLATE>
B1002L2012M01

> <WELL>
N4

> <EOS>
EOS100631

> <CCMF_source_vial_barcode>
LV2001696027

> <concentration_mM>
10

> <volume_ul>
30

$$$$
EOS100632
  SciTegic04282016392D

 31 34  0  0  0  0            999 V2000
    0.3821   -2.3076    0.0000 S   0  0
    0.7947   -1.5930    0.0000 N   0  0
    0.2426   -0.9799    0.0000 C   0  0
   -0.5111   -1.3155    0.0000 C   0  0
   -0.4249   -2.1360    0.0000 C   0  0
    0.4142   -0.1730    0.0000 O   0  0
   -1.2254   -0.9029    0.0000 N   0  0
   -1.2254   -0.0780    0.0000 C   0  0
   -0.5111    0.3344    0.0000 C   0  0
   -0.5111    1.1595    0.0000 C   0  0
   -1.2254    1.5719    0.0000 C   0  0
   -1.9401    1.1595    0.0000 C   0  0
   -1.9401    0.3344    0.0000 C   0  0
   -1.2254    2.3971    0.0000 N   0  0
   -0.5111    2.8092    0.0000 C   0  0
   -0.5111    3.6341    0.0000 C   0  0
   -1.2254    4.0467    0.0000 C   0  0
   -1.9401    3.6341    0.0000 C   0  0
   -1.9401    2.8092    0.0000 C   0  0
   -1.0379   -2.6876    0.0000 C   0  0
   -0.8663   -3.4946    0.0000 C   0  0
   -1.4793   -4.0467    0.0000 C   0  0
   -2.2640   -3.7917    0.0000 C   0  0
   -2.4356   -2.9847    0.0000 C   0  0
   -1.8226   -2.4331    0.0000 C   0  0
    1.6152   -1.5068    0.0000 C   0  0
    1.9508   -0.7531    0.0000 C   0  0
    2.4356   -1.4206    0.0000 C   0  0
    2.1000   -2.1743    0.0000 C   0  0
    0.2959   -3.1277    0.0000 O   0  0
    1.0496   -2.7921    0.0000 O   0  0
  1  2  1  0
  2  3  1  0
  3  4  1  0
  4  5  2  0
  1  5  1  0
  3  6  2  0
  8  9  2  0
  9 10  1  0
 10 11  2  0
 11 12  1  0
 12 13  2  0
  8 13  1  0
 14 15  1  0
 15 16  1  0
 16 17  1  0
 17 18  1  0
 18 19  1  0
 14 19  1  0
 11 14  1  0
  7  8  1  0
  4  7  1  0
 20 21  2  0
 21 22  1  0
 22 23  2  0
 23 24  1  0
 24 25  2  0
 20 25  1  0
  5 20  1  0
 26 27  1  0
 26 28  1  0
 26 29  1  0
  2 26  1  0
  1 30  2  0
  1 31  2  0
M  END
> <Library>
Bioactives

> <Batch>
2012

> <PLATE>
B1002L2012M01

> <WELL>
P4

> <EOS>
EOS100632

> <CCMF_source_vial_barcode>
LV2001695992

> <concentration_mM>
10

> <volume_ul>
30

$$$$
EOS100633
  SciTegic04282016392D

 26 29  0  0  0  0            999 V2000
   11.7701   -6.9395    0.0000 N   0  0
   12.4848   -7.3519    0.0000 C   0  0
   12.4848   -8.1770    0.0000 N   0  0
   11.7701   -8.5895    0.0000 C   0  0
   11.0557   -8.1770    0.0000 C   0  0
   10.3412   -8.5895    0.0000 N   0  0
    9.6268   -8.1770    0.0000 C   0  0
    9.6268   -7.3519    0.0000 C   0  0
   10.3412   -6.9395    0.0000 N   0  0
   11.0557   -7.3519    0.0000 C   0  0
   11.7701   -9.4145    0.0000 N   0  0
   13.1992   -6.9395    0.0000 N   0  0
    7.4833   -8.5895    0.0000 C   0  0
    8.1979   -8.1770    0.0000 C   0  0
    8.9124   -8.5895    0.0000 C   0  0
    8.9124   -9.4145    0.0000 C   0  0
    8.1979   -9.8270    0.0000 C   0  0
    7.4833   -9.4145    0.0000 C   0  0
    6.7689   -8.1770    0.0000 O   0  0
    8.1979   -5.7019    0.0000 C   0  0
    8.9124   -6.1144    0.0000 C   0  0
    8.9124   -6.9395    0.0000 C   0  0
    8.1979   -7.3519    0.0000 C   0  0
    7.4833   -6.9395    0.0000 C   0  0
    7.4833   -6.1144    0.0000 C   0  0
    8.1979   -4.8770    0.0000 O   0  0
  1  2  1  0
  2  3  2  0
  3  4  1  0
  4  5  2  0
  5  6  1  0
  6  7  2  0
  7  8  1  0
  8  9  2  0
  9 10  1  0
  1 10  2  0
  5 10  1  0
  4 11  1  0
  2 12  1  0
 13 14  2  0
 14 15  1  0
 15 16  2  0
 16 17  1  0
 17 18  2  0
 13 18  1  0
 13 19  1  0
  7 15  1  0
 20 21  2  0
 21 22  1  0
 22 23  2  0
 23 24  1  0
 24 25  2  0
 20 25  1  0
 20 26  1  0
  8 22  1  0
M  END
> <Library>
Bioactives

> <Batch>
2012

> <PLATE>
B1002L2012M01

> <WELL>
B6

> <EOS>
EOS100633

> <CCMF_source_vial_barcode>
LV2001695994

> <concentration_mM>
10

> <volume_ul>
30

$$$$
EOS100634
  SciTegic04282016392D

 33 37  0  0  0  0            999 V2000
    0.0042    1.6208    0.0000 C   0  0
    0.7917    1.8792    0.0000 C   0  0
   -0.2500    0.8417    0.0000 C   0  0
    1.4542    1.3958    0.0000 C   0  0
   -0.4792    2.2917    0.0000 C   0  0
    0.7917    2.7042    0.0000 C   0  0
    0.0042    2.9583    0.0000 N   0  0
   -1.0333    0.5875    0.0000 C   0  0
    0.2375    0.1750    0.0000 C   0  0
   -0.2500   -0.4958    0.0000 N   0  0
   -1.0333   -0.2375    0.0000 C   0  0
    1.4542    0.5708    0.0000 C   0  0
    2.2417    1.6500    0.0000 C   0  0
    2.2417    0.3125    0.0000 N   0  0
    2.7250    0.9833    0.0000 C   0  0
   -1.7458   -0.6500    0.0000 C   0  0
    1.4542    3.1875    0.0000 O   0  0
   -1.3000    2.2917    0.0000 O   0  0
   -1.7458    1.0000    0.0000 C   0  0
    0.0042   -1.2750    0.0000 C   0  0
   -2.4625    0.5875    0.0000 C   0  0
    0.8083   -1.4458    0.0000 C   0  0
   -2.4625   -0.2375    0.0000 C   0  0
    1.8667   -2.4000    0.0000 N   0  0
    2.5750    2.4042    0.0000 C   0  0
   -3.1750    0.9958    0.0000 O   0  0
    1.0625   -2.2292    0.0000 C   0  0
    3.5458    1.0667    0.0000 C   0  0
    2.4208   -1.7875    0.0000 C   0  0
    2.1208   -3.1833    0.0000 C   0  0
   -3.8875    0.5875    0.0000 C   0  0
    3.3958    2.4875    0.0000 C   0  0
    3.8833    1.8208    0.0000 C   0  0
  2  1  2  0
  3  1  1  0
  4  2  1  0
  5  1  1  0
  6  2  1  0
  7  5  1  0
  8  3  1  0
  9  3  2  0
 10  9  1  0
 11  8  1  0
 12  4  2  0
 13  4  1  0
 14 12  1  0
 15 13  1  0
 16 11  2  0
 17  6  2  0
 18  5  2  0
 19  8  2  0
 20 10  1  0
 21 19  1  0
 22 20  1  0
 23 21  2  0
 24 27  1  0
 25 13  2  0
 26 21  1  0
 27 22  1  0
 28 15  2  0
 29 24  1  0
 30 24  1  0
 31 26  1  0
 32 25  1  0
 33 32  2  0
  7  6  1  0
 10 11  1  0
 15 14  1  0
 16 23  1  0
 33 28  1  0
M  END
> <Library>
Bioactives

> <Batch>
2012

> <PLATE>
B1002L2012M01

> <WELL>
D6

> <EOS>
EOS100634

> <CCMF_source_vial_barcode>
LV2001696005

> <concentration_mM>
10

> <volume_ul>
30

$$$$
EOS100635
  SciTegic04282016392D

 37 40  0  0  0  0            999 V2000
    5.6960    5.3278    0.0000 C   0  0
    5.6960    4.5028    0.0000 C   0  0
    6.4106    4.0903    0.0000 C   0  0
    7.1250    4.5028    0.0000 C   0  0
    7.1250    5.3278    0.0000 C   0  0
    6.4106    5.7404    0.0000 C   0  0
    7.8395    4.0903    0.0000 C   0  0
    8.5540    4.5028    0.0000 N   0  0
    8.5540    5.3278    0.0000 C   0  0
    7.8395    5.7404    0.0000 N   0  0
    7.8395    3.2682    0.0000 N   0  0
    8.5515    2.8571    0.0000 C   0  0
    8.6378    2.0366    0.0000 N   0  0
    9.4447    1.8651    0.0000 N   0  0
    9.8573    2.5795    0.0000 C   0  0
    9.3052    3.1926    0.0000 C   0  0
   10.6749    2.6655    0.0000 C   0  0
   11.1581    2.0003    0.0000 C   0  0
   11.9758    2.0863    0.0000 N   0  0
   10.8238    1.2493    0.0000 O   0  0
   12.4591    1.4212    0.0000 C   0  0
    4.9841    5.7389    0.0000 O   0  0
    4.2721    5.3278    0.0000 C   0  0
    3.5600    5.7389    0.0000 C   0  0
    2.8480    5.3278    0.0000 C   0  0
    2.1360    5.7389    0.0000 N   0  0
    1.4240    5.3278    0.0000 C   0  0
    2.1360    6.5611    0.0000 C   0  0
    1.4240    6.9722    0.0000 C   0  0
    0.7120    5.7389    0.0000 C   0  0
    0.0000    5.3278    0.0000 O   0  0
   12.1235    0.6674    0.0000 C   0  0
   12.6085    0.0000    0.0000 C   0  0
   13.4289    0.0862    0.0000 C   0  0
   13.7645    0.8399    0.0000 C   0  0
   13.2796    1.5074    0.0000 C   0  0
   14.5821    0.9258    0.0000 F   0  0
  1  2  2  0
  6  1  1  0
  1 22  1  0
  2  3  1  0
  3  4  2  0
  4  5  1  0
  4  7  1  0
  5  6  2  0
 10  5  1  0
  7  8  2  0
  7 11  1  0
  8  9  1  0
  9 10  2  0
 11 12  1  0
 12 13  1  0
 16 12  2  0
 13 14  1  0
 14 15  2  0
 15 16  1  0
 15 17  1  0
 17 18  1  0
 18 19  1  0
 18 20  2  0
 19 21  1  0
 21 32  2  0
 36 21  1  0
 22 23  1  0
 23 24  1  0
 24 25  1  0
 25 26  1  0
 26 27  1  0
 26 28  1  0
 27 30  1  0
 28 29  1  0
 30 31  1  0
 32 33  1  0
 33 34  2  0
 34 35  1  0
 35 36  2  0
 35 37  1  0
M  END
> <Library>
Bioactives

> <Batch>
2012

> <PLATE>
B1002L2012M01

> <WELL>
F6

> <EOS>
EOS100635

> <CCMF_source_vial_barcode>
LV2001696616

> <concentration_mM>
10

> <volume_ul>
30

$$$$
EOS100636
  SciTegic04282016392D

 37 41  0  0  0  0            999 V2000
    9.6250   -3.1167    0.0000 C   0  0
    9.6167   -3.9417    0.0000 N   0  0
    6.7667   -5.5875    0.0000 C   0  0
    8.1917   -3.1167    0.0000 C   0  0
    8.9125   -2.7042    0.0000 N   0  0
    7.4792   -5.1750    0.0000 N   0  0
   10.3292   -4.3542    0.0000 C   0  0
    3.1917   -4.3417    0.0000 N   0  0
    8.1917   -3.9417    0.0000 C   0  0
    1.7750   -5.1667    0.0000 N   0  0
   10.3333   -2.7042    0.0000 N   0  0
    6.0500   -5.1750    0.0000 C   0  0
    7.4792   -4.3500    0.0000 C   0  0
   10.3292   -5.1792    0.0000 C   0  0
    7.4792   -2.7042    0.0000 C   0  0
    6.7625   -6.4125    0.0000 O   0  0
   11.0417   -6.4125    0.0000 N   0  0
    3.9125   -3.9292    0.0000 C   0  0
    5.3292   -5.5792    0.0000 C   0  0
    6.0500   -4.3417    0.0000 C   0  0
    6.7667   -3.1167    0.0000 C   0  0
    2.4792   -3.9250    0.0000 C   0  0
    3.1917   -5.1667    0.0000 C   0  0
    1.7750   -4.3417    0.0000 C   0  0
    2.4792   -5.5750    0.0000 C   0  0
   11.0500   -3.9417    0.0000 C   0  0
   11.0500   -3.1167    0.0000 C   0  0
    4.6250   -4.3417    0.0000 C   0  0
    6.7667   -3.9417    0.0000 C   0  0
    4.6167   -5.1667    0.0000 C   0  0
    5.3375   -3.9292    0.0000 C   0  0
   11.0417   -5.5917    0.0000 C   0  0
    1.0542   -5.5792    0.0000 C   0  0
    9.6167   -5.5875    0.0000 C   0  0
   10.3292   -6.8292    0.0000 C   0  0
    7.4792   -1.8792    0.0000 C   0  0
    9.6125   -6.4125    0.0000 C   0  0
  2  1  2  0
  3  6  1  0
  4  5  1  0
  5  1  1  0
  6 13  1  0
  7  2  1  0
  8 18  1  0
  9  4  2  0
 10 25  1  0
 11  1  1  0
 12  3  1  0
 13  9  1  0
 14  7  1  0
 15  4  1  0
 16  3  2  0
 17 32  1  0
 18 28  1  0
 19 12  2  0
 20 12  1  0
 21 15  2  0
 22  8  1  0
 23  8  1  0
 24 22  1  0
 25 23  1  0
 26 27  1  0
 27 11  2  0
 28 31  1  0
 29 21  1  0
 30 19  1  0
 31 20  2  0
 32 14  2  0
 33 10  1  0
 34 14  1  0
 35 37  1  0
 36 15  1  0
 37 34  2  0
  7 26  2  0
 29 13  2  0
 17 35  2  0
 28 30  2  0
 24 10  1  0
M  END
> <Library>
Bioactives

> <Batch>
2012

> <PLATE>
B1002L2012M01

> <WELL>
H6

> <EOS>
EOS100636

> <CCMF_source_vial_barcode>
LV2001696631

> <concentration_mM>
10

> <volume_ul>
30

$$$$
EOS100637
  SciTegic04282016392D

 25 29  0  0  0  0            999 V2000
    4.7053   -4.0586    0.0000 C   0  0
    4.7053   -5.3851    0.0000 N   0  0
    5.1903   -4.7260    0.0000 C   0  0
    3.9300   -5.1281    0.0000 N   0  0
    3.9300   -4.3073    0.0000 C   0  0
    6.0318   -2.3174    0.0000 C   0  0
    4.9623   -3.2750    0.0000 C   0  0
    5.4764   -1.7038    0.0000 C   0  0
    6.7034   -1.1608    0.0000 N   0  0
    5.8868   -0.9867    0.0000 N   0  0
    6.7822   -1.9816    0.0000 C   0  0
    4.4068   -2.6656    0.0000 N   0  0
    5.7748   -3.1009    0.0000 C   0  0
    4.6680   -1.8697    0.0000 N   0  0
    3.2211   -5.5385    0.0000 C   0  0
    3.2211   -3.8969    0.0000 C   0  0
    6.0111   -4.6431    0.0000 C   0  0
    2.5040   -5.1281    0.0000 C   0  0
    2.5040   -4.3156    0.0000 C   0  0
    7.4994   -2.3920    0.0000 N   0  0
    6.3469   -3.8927    0.0000 C   0  0
    6.4920   -5.3147    0.0000 C   0  0
    7.3128   -5.2359    0.0000 C   0  0
    7.1678   -3.8098    0.0000 C   0  0
    7.6528   -4.4772    0.0000 C   0  0
  2  3  2  0
  3  1  1  0
  4  5  1  0
  5  1  2  0
  6 13  2  0
  7  1  1  0
  8  6  1  0
  9 11  2  0
 10  8  1  0
 11  6  1  0
 12  7  2  0
 13  7  1  0
 14 12  1  0
 15  4  1  0
 16  5  1  0
 17  3  1  0
 18 19  1  0
 19 16  2  0
 20 11  1  0
 21 17  2  0
 22 17  1  0
 23 22  2  0
 24 21  1  0
 25 23  1  0
  4  2  1  0
 14  8  2  0
 15 18  2  0
  9 10  1  0
 24 25  2  0
M  END
> <Library>
Bioactives

> <Batch>
2012

> <PLATE>
B1002L2012M01

> <WELL>
J6

> <EOS>
EOS100637

> <CCMF_source_vial_barcode>
LV2001695451

> <concentration_mM>
10

> <volume_ul>
30

$$$$
EOS100638
  SciTegic04282016392D

 36 40  0  0  0  0            999 V2000
   -4.4766   -0.0152    0.0000 C   0  0
   -3.7621   -0.4277    0.0000 C   0  0
   -3.0477   -0.0152    0.0000 C   0  0
   -2.3332   -0.4277    0.0000 S   0  0
   -1.6187   -0.0152    0.0000 C   0  0
   -0.9043   -0.4277    0.0000 N   0  0
   -0.1898   -0.0152    0.0000 C   0  0
   -0.1898    0.8098    0.0000 C   0  0
    0.5948    1.0647    0.0000 N   0  0
    1.0798    0.3973    0.0000 N   0  0
    0.5948   -0.2701    0.0000 N   0  0
    0.8498   -1.0548    0.0000 C   0  0  2  0  0  0
    1.6344   -1.3097    0.0000 C   0  0
    1.6344   -2.1347    0.0000 C   0  0  2  0  0  0
    2.3018   -2.6196    0.0000 O   0  0
    3.0555   -2.2841    0.0000 C   0  0
    3.7229   -2.7690    0.0000 C   0  0
    4.4766   -2.4334    0.0000 O   0  0
    0.8498   -2.3896    0.0000 C   0  0  1  0  0  0
    0.5948   -3.1743    0.0000 O   0  0
    0.3648   -1.7222    0.0000 C   0  0  1  0  0  0
   -0.4602   -1.7222    0.0000 O   0  0
   -0.9043    1.2223    0.0000 C   0  0
   -0.9043    2.0473    0.0000 N   0  0
   -0.1898    2.4598    0.0000 C   0  0  2  0  0  0
    0.2227    3.1743    0.0000 C   0  0
    0.6352    2.4598    0.0000 C   0  0  1  0  0  0
    1.3497    2.0473    0.0000 C   0  0
    1.3497    1.2223    0.0000 C   0  0
    2.0641    0.8098    0.0000 C   0  0
    2.7786    1.2223    0.0000 C   0  0
    3.4931    0.8098    0.0000 F   0  0
    2.7786    2.0473    0.0000 C   0  0
    3.4931    2.4598    0.0000 F   0  0
    2.0641    2.4598    0.0000 C   0  0
   -1.6187    0.8098    0.0000 N   0  0
  1  2  1  0
  2  3  1  0
  3  4  1  0
  4  5  1  0
  5  6  1  0
  6  7  2  0
  7  8  1  0
  8  9  1  0
  9 10  2  0
 10 11  1  0
  7 11  1  0
 12 11  1  0
 12 13  1  6
 14 13  1  0
 14 15  1  6
 15 16  1  0
 16 17  1  0
 17 18  1  0
 19 14  1  0
 19 20  1  1
 19 21  1  0
 21 12  1  0
 21 22  1  1
  8 23  2  0
 23 24  1  0
 25 24  1  6
 25 26  1  0
 27 26  1  1
 25 27  1  0
 27 28  1  0
 28 29  2  0
 29 30  1  0
 30 31  2  0
 31 32  1  0
 31 33  1  0
 33 34  1  0
 33 35  2  0
 28 35  1  0
 23 36  1  0
  5 36  2  0
M  END
> <Library>
Bioactives

> <Batch>
2012

> <PLATE>
B1002L2012M01

> <WELL>
L6

> <EOS>
EOS100638

> <CCMF_source_vial_barcode>
LV2001696663

> <concentration_mM>
10

> <volume_ul>
30

$$$$
EOS100639
  SciTegic04282016392D

 35 38  0  0  1  0            999 V2000
   11.9894   -2.5181    0.0000 C   0  0
   11.3562   -3.0514    0.0000 C   0  0
   10.5814   -2.7681    0.0000 C   0  0
    9.9483   -3.2972    0.0000 C   0  0
    9.1734   -3.0181    0.0000 C   0  0
    8.3986   -2.7348    0.0000 F   0  0
    9.4566   -2.2391    0.0000 F   0  0
    8.8942   -3.7887    0.0000 F   0  0
   10.0941   -4.1054    0.0000 C   0  0
   10.8688   -4.3887    0.0000 C   0  0
   11.4980   -3.8595    0.0000 C   0  0
   11.0105   -5.2009    0.0000 C   0  0  2  0  0  0
   10.3773   -5.7300    0.0000 O   0  0
   10.5231   -6.5424    0.0000 C   0  0
    9.8899   -7.0755    0.0000 C   0  0  2  0  0  0
    9.4776   -6.3590    0.0000 N   0  0
    8.6527   -6.3590    0.0000 C   0  0
    8.2403   -7.0755    0.0000 C   0  0  1  0  0  0
    7.7569   -6.4048    0.0000 N   0  0
    6.9738   -6.6631    0.0000 C   0  0
    6.3032   -6.1758    0.0000 O   0  0
    6.9738   -7.4879    0.0000 C   0  0
    7.7569   -7.7421    0.0000 C   0  0
    8.6527   -7.7879    0.0000 C   0  0
    9.4776   -7.7879    0.0000 C   0  0
   10.5231   -7.6047    0.0000 C   0  0
   11.2980   -7.3213    0.0000 C   0  0
   11.9311   -7.8504    0.0000 C   0  0
   11.7854   -8.6627    0.0000 C   0  0
   11.0105   -8.9459    0.0000 C   0  0
   10.3773   -8.4170    0.0000 C   0  0
   11.7854   -5.4842    0.0000 C   0  0
   12.5185   -3.1514    0.0000 F   0  0
   11.4562   -1.8891    0.0000 F   0  0
   12.6185   -1.9891    0.0000 F   0  0
  2  1  1  0
  3  2  2  0
  4  3  1  0
  4  9  2  0
  5  4  1  0
  6  5  1  0
  7  5  1  0
  8  5  1  0
  9 10  1  0
 10 11  2  0
 11  2  1  0
 12 10  1  0
 12 32  1  1
 12 13  1  0
 14 13  1  0
 15 14  1  1
 15 26  1  0
 15 16  1  0
 17 16  1  0
 18 17  1  0
 18 19  1  1
 18 24  1  0
 20 19  1  0
 20 22  1  0
 21 20  2  0
 22 23  1  0
 18 23  1  0
 24 25  1  0
 15 25  1  0
 27 26  2  0
 28 27  1  0
 29 28  2  0
 29 30  1  0
 30 31  2  0
 31 26  1  0
 33  1  1  0
 34  1  1  0
 35  1  1  0
M  END
> <Library>
Bioactives

> <Batch>
2012

> <PLATE>
B1002L2012M01

> <WELL>
N6

> <EOS>
EOS100639

> <CCMF_source_vial_barcode>
LV2001696590

> <concentration_mM>
10

> <volume_ul>
30

$$$$
EOS100640
  SciTegic04282016392D

 24 25  0  0  0  0            999 V2000
   -3.9043   -0.8686    0.0000 C   0  0
   -4.7248   -0.7824    0.0000 C   0  0
   -3.5688   -1.6223    0.0000 O   0  0
   -3.4194   -0.2011    0.0000 N   0  0
   -2.0469    0.3257    0.0000 S   0  0
   -2.5989   -0.2874    0.0000 C   0  0
   -2.1864   -1.0019    0.0000 N   0  0
   -1.3795   -0.8303    0.0000 C   0  0
   -1.2932   -0.0099    0.0000 C   0  0
   -0.7663   -1.3823    0.0000 C   0  0
   -0.5787    0.4026    0.0000 C   0  0
    0.1357   -0.0099    0.0000 C   0  0
    0.8502    0.4026    0.0000 C   0  0
    0.8502    1.2276    0.0000 C   0  0
    0.1357    1.6401    0.0000 C   0  0
   -0.5787    1.2276    0.0000 C   0  0
    1.5647   -0.0099    0.0000 S   0  0
    1.9772    0.7046    0.0000 O   0  0
    1.1522   -0.7243    0.0000 O   0  0
    2.2791   -0.4224    0.0000 N   0  0
    2.9936   -0.0099    0.0000 C   0  0
    3.7081   -0.4224    0.0000 C   0  0
    4.4226   -0.0099    0.0000 O   0  0
    1.5647    1.6401    0.0000 Cl  0  0
  1  2  1  0
  1  3  2  0
  1  4  1  0
  4  6  1  0
  5  6  1  0
  5  9  1  0
  6  7  2  0
  7  8  1  0
  8  9  2  0
  8 10  1  0
  9 11  1  0
 11 12  2  0
 11 16  1  0
 12 13  1  0
 13 14  2  0
 13 17  1  0
 14 15  1  0
 14 24  1  0
 15 16  2  0
 17 18  2  0
 17 19  2  0
 17 20  1  0
 20 21  1  0
 21 22  1  0
 22 23  1  0
M  END
> <Library>
Bioactives

> <Batch>
2012

> <PLATE>
B1002L2012M01

> <WELL>
P6

> <EOS>
EOS100640

> <CCMF_source_vial_barcode>
LV2001695371

> <concentration_mM>
10

> <volume_ul>
30

$$$$
EOS100641
  SciTegic04282016392D

 36 40  0  0  0  0            999 V2000
    8.0822   -0.4124    0.0000 N   0  0
    8.0822   -1.2373    0.0000 C   0  0
    8.7946    0.0042    0.0000 C   0  0
    9.5112   -0.4082    0.0000 C   0  0
    8.7946   -1.6498    0.0000 N   0  0
    9.5112   -1.2331    0.0000 C   0  0
    7.3657   -1.6498    0.0000 N   0  0
   10.2194    0.0083    0.0000 C   0  0
   10.2278   -1.6456    0.0000 C   0  0
    8.7905    0.8291    0.0000 N   0  0
   10.9361   -0.3999    0.0000 C   0  0
   10.9403   -1.2290    0.0000 C   0  0
    6.6491    2.0622    0.0000 N   0  0
    6.0075   -2.9163    0.0000 N   0  0
    7.4282   -2.4747    0.0000 C   0  0
    8.0781    1.2373    0.0000 C   0  0
    5.9367    2.4747    0.0000 C   0  0
    7.3657    0.8207    0.0000 C   0  0
    8.0781    2.0622    0.0000 C   0  0
    7.3657    2.4705    0.0000 C   0  0
    6.6491    1.2331    0.0000 C   0  0
    6.8241   -3.0371    0.0000 C   0  0
    5.8950   -1.4331    0.0000 C   0  0
    6.6866   -1.1873    0.0000 C   0  0
   11.6485    0.0167    0.0000 O   0  0
   11.6568   -1.6373    0.0000 O   0  0
    5.5993   -2.2039    0.0000 C   0  0
    5.2201    2.0622    0.0000 C   0  0
    5.5451   -3.5995    0.0000 C   0  0
   12.3692   -1.2248    0.0000 C   0  0
   12.3651   -0.3916    0.0000 C   0  0
    4.5077    2.4747    0.0000 C   0  0
    5.2243    1.2373    0.0000 C   0  0
    4.5119    0.8249    0.0000 C   0  0
    3.7953    2.0622    0.0000 C   0  0
    3.7953    1.2373    0.0000 C   0  0
  2  1  2  0
  3  1  1  0
  4  3  2  0
  5  2  1  0
  6  5  2  0
  7  2  1  0
  8  4  1  0
  9  6  1  0
 10  3  1  0
 11  8  2  0
 12  9  2  0
 13 21  1  0
 14 22  1  0
 15  7  1  0
 16 10  1  0
 17 13  1  0
 18 16  1  0
 19 16  1  0
 20 19  1  0
 21 18  1  0
 22 15  1  0
 23 24  1  0
 24  7  1  0
 25 11  1  0
 26 12  1  0
 27 23  1  0
 28 17  1  0
 29 14  1  0
 30 26  1  0
 31 25  1  0
 32 28  2  0
 33 28  1  0
 34 33  2  0
 35 32  1  0
 36 34  1  0
  6  4  1  0
 27 14  1  0
 11 12  1  0
 13 20  1  0
 36 35  2  0
M  END
> <Library>
Bioactives

> <Batch>
2012

> <PLATE>
B1002L2012M01

> <WELL>
B8

> <EOS>
EOS100641

> <CCMF_source_vial_barcode>
LV2001696035

> <concentration_mM>
10

> <volume_ul>
30

$$$$
EOS100642
  SciTegic04282016392D

 16 16  0  0  0  0            999 V2000
    5.6638   -2.1378    0.0000 C   0  0
    5.8071   -2.9503    0.0000 C   0  0
    5.1751   -3.4805    0.0000 C   0  0
    4.3999   -3.1984    0.0000 C   0  0
    4.2566   -2.3859    0.0000 C   0  0
    4.8886   -1.8556    0.0000 N   0  0
    3.4814   -2.1038    0.0000 C   0  0
    2.7062   -1.8216    0.0000 C   0  0
    1.9309   -1.5395    0.0000 C   0  0
    1.2990   -2.0698    0.0000 C   0  0
    0.5238   -1.7876    0.0000 C   0  0
    0.3805   -0.9751    0.0000 C   0  0
    1.0125   -0.4448    0.0000 C   0  0
    1.7877   -0.7270    0.0000 C   0  0
    6.2958   -1.6075    0.0000 C   0  0
    4.2829   -1.1681    0.0000 Cl  0  0
  1  2  2  0
  2  3  1  0
  3  4  2  0
  4  5  1  0
  5  6  2  0
  1  6  1  0
  7  8  3  0
  9 10  2  0
 10 11  1  0
 11 12  2  0
 12 13  1  0
 13 14  2  0
  9 14  1  0
  8  9  1  0
  5  7  1  0
  1 15  1  0
M  END
> <Library>
Bioactives

> <Batch>
2012

> <PLATE>
B1002L2012M01

> <WELL>
D8

> <EOS>
EOS100642

> <CCMF_source_vial_barcode>
LV2001696021

> <concentration_mM>
10

> <volume_ul>
30

$$$$
EOS100643
  SciTegic04282016392D

 26 26  0  0  0  0            999 V2000
    5.4196   -2.0389    0.0000 N   0  0
    5.4066   -3.6790    0.0000 C   0  0  1  0  0  0
    4.7050   -1.6136    0.0000 C   0  0
    4.7050   -0.7848    0.0000 C   0  0
    6.1345   -0.7936    0.0000 N   0  0
    5.1566   -4.4638    0.0000 C   0  0  1  0  0  0
    6.1301   -1.6224    0.0000 C   0  0
    4.7533   -3.1922    0.0000 O   0  0
    1.8110   -3.6746    0.0000 P   0  0
    0.9867   -3.6657    0.0000 O   0  5
    4.0779   -3.6790    0.0000 C   0  0  1  0  0  0
    4.3367   -4.4638    0.0000 C   0  0  1  0  0  0
    3.9903   -0.3727    0.0000 C   0  0
    3.9903   -2.0257    0.0000 N   0  0
    3.2798   -0.7848    0.0000 N   0  0
    3.3632   -3.2668    0.0000 C   0  0
    3.2798   -1.6136    0.0000 C   0  0
    2.6397   -3.6746    0.0000 O   0  0
    1.8110   -4.5033    0.0000 O   0  5
    1.8110   -2.8500    0.0000 O   0  0
    5.6433   -5.1259    0.0000 O   0  0
    3.9903    0.4517    0.0000 O   0  0
    3.8500   -5.1303    0.0000 O   0  0
    2.5274   -2.0470    0.0000 N   0  0
   -0.0964   -3.6439    0.0000 Na  0  3
    1.5785   -5.3232    0.0000 Na  0  3
  2  1  1  0
  3  1  1  0
  4  3  2  0
  5  7  2  0
  6  2  1  0
  7  1  1  0
  2  8  1  6
  9 18  1  0
 10  9  1  0
 11  8  1  0
  6 12  1  0
 13  4  1  0
 14  3  1  0
 15 17  1  0
 11 16  1  1
 17 14  2  0
 18 16  1  0
 19  9  1  0
 20  9  2  0
  6 21  1  6
 22 13  2  0
 12 23  1  6
  4  5  1  0
 12 11  1  0
 15 13  1  0
 17 24  1  0
M  CHG  4  10  -1  19  -1  25   1  26   1
M  END
> <Library>
Bioactives

> <Batch>
2012

> <PLATE>
B1002L2012M01

> <WELL>
F8

> <EOS>
EOS100643

> <CCMF_source_vial_barcode>
LV2001695405

> <concentration_mM>
10

> <volume_ul>
30

$$$$
EOS100644
  SciTegic04282016392D

 24 26  0  0  1  0            999 V2000
    1.4289   -4.1250    0.0000 O   0  0
    1.4289   -3.3000    0.0000 C   0  0
    0.7145   -2.8875    0.0000 C   0  0
    0.0000   -3.3000    0.0000 C   0  0
   -0.7145   -2.8875    0.0000 C   0  0
   -0.7145   -2.0625    0.0000 C   0  0
    0.0000   -1.6500    0.0000 C   0  0
    0.7145   -2.0625    0.0000 C   0  0
    1.4289   -1.6500    0.0000 N   0  0
    2.1434   -2.0625    0.0000 C   0  0
    2.8579   -1.6500    0.0000 C   0  0
    3.5724   -2.0625    0.0000 C   0  0
    4.2868   -1.6500    0.0000 C   0  0
    5.0013   -2.0625    0.0000 N   0  0
    5.7158   -1.6500    0.0000 C   0  0  1  0  0  0
    5.7158   -0.8250    0.0000 C   0  0
    6.4302   -2.0625    0.0000 C   0  0
    7.1447   -1.6500    0.0000 C   0  0
    7.8592   -2.0625    0.0000 C   0  0
    7.8592   -2.8875    0.0000 C   0  0
    7.1447   -3.3000    0.0000 C   0  0
    6.4302   -2.8875    0.0000 C   0  0
    4.2868   -0.8250    0.0000 O   0  0
    2.1434   -2.8875    0.0000 N   0  0
  1  2  2  0
  2  3  1  0
  3  4  2  0
  4  5  1  0
  5  6  2  0
  6  7  1  0
  7  8  2  0
  3  8  1  0
  8  9  1  0
  9 10  1  0
 10 11  1  0
 11 12  1  0
 12 13  1  0
 13 14  1  0
 15 14  1  0
 15 16  1  1
 15 17  1  0
 17 18  2  0
 18 19  1  0
 19 20  2  0
 20 21  1  0
 21 22  2  0
 17 22  1  0
 13 23  2  0
 10 24  2  0
  2 24  1  0
M  END
> <Library>
Bioactives

> <Batch>
2012

> <PLATE>
B1002L2012M01

> <WELL>
H8

> <EOS>
EOS100644

> <CCMF_source_vial_barcode>
LV2001696024

> <concentration_mM>
10

> <volume_ul>
30

$$$$
EOS100645
  SciTegic04282016392D

 33 36  0  0  0  0            999 V2000
    5.6432   -6.3177    0.0000 C   0  0
    5.6432   -7.1427    0.0000 C   0  0
    6.3578   -7.5553    0.0000 C   0  0
    7.0723   -7.1427    0.0000 C   0  0
    7.0723   -6.3177    0.0000 C   0  0
    6.3578   -5.9051    0.0000 C   0  0
    6.3578   -5.0829    0.0000 C   0  0
    4.9310   -5.9065    0.0000 C   0  0
    6.3578   -8.3775    0.0000 N   0  0
    5.6902   -8.8626    0.0000 N   0  0
    5.9452   -9.6472    0.0000 C   0  0
    6.7702   -9.6472    0.0000 C   0  0
    7.0252   -8.8626    0.0000 C   0  0
    5.4619  -10.3124    0.0000 C   0  0
    7.8073   -8.6084    0.0000 O   0  0
    7.2535  -10.3124    0.0000 N   0  0
    8.0714  -10.2265    0.0000 N   0  0
    8.5984  -10.8576    0.0000 C   0  0
    8.2017  -11.5810    0.0000 C   0  0
    8.6298  -12.2864    0.0000 C   0  0
    9.4547  -12.2682    0.0000 C   0  0
    9.8515  -11.5448    0.0000 C   0  0
    9.4233  -10.8396    0.0000 C   0  0
    9.8187  -10.1185    0.0000 O   0  0
   10.6735  -11.5267    0.0000 C   0  0
   11.1098  -12.2270    0.0000 C   0  0
   11.9345  -12.2270    0.0000 C   0  0
   12.3227  -11.5267    0.0000 C   0  0
   11.9345  -10.8265    0.0000 C   0  0
   11.1098  -10.8265    0.0000 C   0  0
   12.3517  -12.9355    0.0000 C   0  0
   13.1767  -12.9355    0.0000 O   0  0
   11.9392  -13.6501    0.0000 O   0  0
  1  2  2  0
  2  3  1  0
  3  4  2  0
  4  5  1  0
  5  6  2  0
  6  1  1  0
  6  7  1  0
  1  8  1  0
  3  9  1  0
  9 10  1  0
 10 11  2  0
 11 12  1  0
 12 13  1  0
 13  9  1  0
 11 14  1  0
 13 15  2  0
 12 16  2  0
 16 17  1  0
 17 18  1  0
 18 19  2  0
 19 20  1  0
 20 21  2  0
 21 22  1  0
 22 23  2  0
 23 18  1  0
 23 24  1  0
 22 25  1  0
 25 26  2  0
 26 27  1  0
 27 28  2  0
 28 29  1  0
 29 30  2  0
 30 25  1  0
 27 31  1  0
 31 32  2  0
 31 33  1  0
M  END
> <Library>
Bioactives

> <Batch>
2012

> <PLATE>
B1002L2012M01

> <WELL>
J8

> <EOS>
EOS100645

> <CCMF_source_vial_barcode>
LV2001695419

> <concentration_mM>
10

> <volume_ul>
30

$$$$
EOS100646
  SciTegic04282016392D

 35 36  0  0  0  0            999 V2000
   -3.1403   -0.8680    0.0000 Cl  0  0
   -3.1957   -1.9275    0.0000 Cl  0  0
   -1.4007   -1.9033    0.0000 Cl  0  0
   -1.2834   -0.9263    0.0000 Cl  0  0
   -1.5936    4.0157    0.0000 N   0  0
   -0.8814    3.5997    0.0000 C   0  0
   -0.8814    2.7747    0.0000 C   0  0
   -1.5936    2.3657    0.0000 C   0  0
   -2.3128    2.7747    0.0000 C   0  0
   -3.0179    2.3657    0.0000 C   0  0
   -3.7372    2.7747    0.0000 C   0  0
   -3.7372    3.5997    0.0000 C   0  0
   -3.0179    4.0157    0.0000 C   0  0
   -2.3128    3.5997    0.0000 C   0  0
   -0.9237    1.0542    0.0000 C   0  0
   -0.1269    1.2234    0.0000 N   0  0
    0.4301    0.6100    0.0000 C   0  0
    0.1763   -0.1727    0.0000 C   0  0
   -0.6346   -0.3420    0.0000 C   0  0
   -1.1846    0.2644    0.0000 N   0  0
   -2.0096    0.2644    0.0000 N   0  0
   -2.2564    1.0542    0.0000 C   0  0
   -1.5936    1.5407    0.0000 C   0  0
    0.7263   -0.7791    0.0000 C   0  0
    1.5372   -0.6099    0.0000 C   0  0
    2.0872   -1.2234    0.0000 C   0  0
    1.8263   -2.0061    0.0000 C   0  0
    1.0225   -2.1753    0.0000 C   0  0
    0.4725   -1.5689    0.0000 C   0  0
    2.3834   -2.6266    0.0000 N   0  0
    3.1872   -2.4503    0.0000 C   0  0
    3.7372   -3.0567    0.0000 C   0  0
    3.4834   -3.8465    0.0000 N   0  0
    2.6795   -4.0157    0.0000 C   0  0
    2.1225   -3.4022    0.0000 C   0  0
  5  6  1  0
  6  7  2  0
  7  8  1  0
  8  9  2  0
  9 10  1  0
 10 11  2  0
 11 12  1  0
 12 13  2  0
 13 14  1  0
  5 14  2  0
  9 14  1  0
 15 16  1  0
 16 17  2  0
 17 18  1  0
 18 19  2  0
 19 20  1  0
 15 20  1  0
 21 22  2  0
 22 23  1  0
 20 21  1  0
 15 23  2  0
 24 25  2  0
 25 26  1  0
 26 27  2  0
 27 28  1  0
 28 29  2  0
 24 29  1  0
 30 31  1  0
 31 32  1  0
 32 33  1  0
 33 34  1  0
 34 35  1  0
 30 35  1  0
 27 30  1  0
 18 24  1  0
  8 23  1  0
M  END
> <Library>
Bioactives

> <Batch>
2012

> <PLATE>
B1002L2012M01

> <WELL>
L8

> <EOS>
EOS100646

> <CCMF_source_vial_barcode>
LV2001696588

> <concentration_mM>
10

> <volume_ul>
30

$$$$
EOS100647
  SciTegic04282016392D

 18 18  0  0  0  0            999 V2000
    1.8022   -1.3395    0.0000 O   0  0
    1.3897   -0.6250    0.0000 S   0  0
    0.6753   -1.0375    0.0000 O   0  0
   -0.0392   -0.6250    0.0000 N   0  0
   -0.6842   -1.1394    0.0000 C   0  0  2  0  0  0
   -1.4885   -0.9558    0.0000 C   0  0
   -1.8465   -0.2125    0.0000 C   0  0
   -1.4885    0.5308    0.0000 C   0  0  1  0  0  0
   -2.0029    1.1758    0.0000 C   0  0
   -2.8187    1.0528    0.0000 N   0  0
   -1.7015    1.9437    0.0000 O   0  0
   -0.6842    0.7143    0.0000 N   0  0
   -1.2172   -0.2125    0.0000 C   0  0
   -0.0392    0.2000    0.0000 C   0  0
    0.6753    0.6125    0.0000 O   0  0
    2.1042   -0.2125    0.0000 O   0  5
    0.9772    0.0894    0.0000 O   0  0
    2.8187   -0.6250    0.0000 Na  0  3
  1  2  2  0
  2  3  1  0
  3  4  1  0
  5  4  1  0
  5  6  1  0
  6  7  1  0
  8  7  1  0
  8  9  1  1
  9 10  1  0
  9 11  2  0
  8 12  1  0
 12 13  1  1
  5 13  1  1
 12 14  1  0
  4 14  1  0
 14 15  2  0
  2 16  1  0
  2 17  2  0
M  CHG  2  16  -1  18   1
M  END
> <Library>
Bioactives

> <Batch>
2012

> <PLATE>
B1002L2012M01

> <WELL>
N8

> <EOS>
EOS100647

> <CCMF_source_vial_barcode>
LV2001696655

> <concentration_mM>
10

> <volume_ul>
30

$$$$
EOS100648
  SciTegic04282016392D

 29 30  0  0  0  0            999 V2000
   -4.6595   -3.4835    0.0000 Na  0  3
   -3.2306   -3.4835    0.0000 C   0  0
   -3.2306   -2.6585    0.0000 C   0  0
   -2.5161   -3.8960    0.0000 O   0  0
   -3.9451   -3.8960    0.0000 O   0  5
   -2.5161   -2.2460    0.0000 O   0  0
    0.4119    0.0714    0.0000 C   0  0  1  0  0  0
    0.8968   -0.5960    0.0000 C   0  0  1  0  0  0
    0.4119   -1.2635    0.0000 C   0  0
   -0.3727   -1.0085    0.0000 C   0  0  2  0  0  0
   -1.0872   -1.4210    0.0000 C   0  0
   -1.8017   -1.0085    0.0000 C   0  0
   -1.8017   -0.1835    0.0000 C   0  0
   -1.0872    0.2290    0.0000 C   0  0
   -0.3727   -0.1835    0.0000 C   0  0  2  0  0  0
   -2.5161    0.2290    0.0000 C   0  0
   -3.2306   -0.1835    0.0000 C   0  0
   -3.2306   -1.0085    0.0000 C   0  0
   -2.5161   -1.4210    0.0000 C   0  0
    0.6668    0.8560    0.0000 C   0  0
    1.4738    1.0276    0.0000 C   0  0
    1.7288    1.8122    0.0000 C   0  0  2  0  0  0
    2.5357    1.9837    0.0000 C   0  0
    2.7907    2.7683    0.0000 C   0  0
    3.5976    2.9399    0.0000 C   0  0
    3.8526    3.7245    0.0000 C   0  0
    4.6595    3.8960    0.0000 C   0  0
    1.1767    2.4253    0.0000 O   0  0
    1.7218   -0.5960    0.0000 O   0  0
  2  3  1  0
  2  4  2  0
  2  5  1  0
  7  8  1  0
  8  9  1  0
 10  9  1  6
 10 11  1  0
 11 12  1  0
 12 13  2  0
 13 14  1  0
 15 14  1  6
  7 15  1  0
 15 10  1  0
 16 17  2  0
 17 18  1  0
 18 19  2  0
 12 19  1  0
 13 16  1  0
 20 21  1  0
 22 21  1  0
 22 23  1  0
 23 24  1  0
 24 25  1  0
 25 26  1  0
 26 27  1  0
 22 28  1  1
  7 20  1  1
  8 29  1  6
  6 19  1  0
  3  6  1  0
M  CHG  2   1   1   5  -1
M  END
> <Library>
Bioactives

> <Batch>
2012

> <PLATE>
B1002L2012M01

> <WELL>
P8

> <EOS>
EOS100648

> <CCMF_source_vial_barcode>
LV2001696046

> <concentration_mM>
10

> <volume_ul>
30

$$$$
EOS100649
  SciTegic04282016392D

 38 42  0  0  1  0            999 V2000
    3.2789    2.0625    0.0000 N   0  0
    3.2789    1.2375    0.0000 C   0  0
    3.9934    0.8250    0.0000 N   0  0
    3.9934    0.0000    0.0000 C   0  0
    3.2789   -0.4125    0.0000 N   0  0
    2.5645    0.0000    0.0000 C   0  0
    2.5645    0.8250    0.0000 C   0  0
    1.7798    1.0799    0.0000 N   0  0
    1.2949    0.4125    0.0000 C   0  0
    0.4699    0.4125    0.0000 N   0  0
    0.0574    1.1270    0.0000 C   0  0
   -0.7676    1.1270    0.0000 C   0  0
   -1.1801    0.4125    0.0000 C   0  0
   -2.0051    0.4125    0.0000 C   0  0
   -2.4176    1.1270    0.0000 C   0  0
   -3.2426    1.1270    0.0000 Cl  0  0
   -2.0051    1.8414    0.0000 C   0  0
   -2.4176    2.5559    0.0000 Cl  0  0
   -1.1801    1.8414    0.0000 C   0  0
    1.7798   -0.2549    0.0000 N   0  0
    1.5249   -1.0396    0.0000 C   0  0  2  0  0  0
    2.0098   -1.7070    0.0000 O   0  0
    1.5249   -2.3744    0.0000 C   0  0  2  0  0  0
    1.7798   -3.1591    0.0000 C   0  0
    1.2278   -3.7722    0.0000 O   0  0
    1.4827   -4.5568    0.0000 C   0  0
    2.2897   -4.7283    0.0000 C   0  0
    2.8417   -4.1152    0.0000 C   0  0
    3.6487   -4.2867    0.0000 C   0  0
    3.9037   -5.0714    0.0000 C   0  0
    4.7106   -5.2429    0.0000 C   0  0
    5.5176   -5.4144    0.0000 N   0  0
    3.3516   -5.6845    0.0000 C   0  0
    2.5447   -5.5129    0.0000 C   0  0
    0.7403   -2.1195    0.0000 C   0  0  1  0  0  0
    0.0728   -2.6044    0.0000 O   0  0
    0.7403   -1.2945    0.0000 C   0  0  1  0  0  0
    0.0728   -0.8096    0.0000 O   0  0
  1  2  1  0
  2  3  1  0
  3  4  2  0
  4  5  1  0
  5  6  2  0
  6  7  1  0
  2  7  2  0
  7  8  1  0
  8  9  2  0
  9 10  1  0
 10 11  1  0
 11 12  1  0
 12 13  2  0
 13 14  1  0
 14 15  2  0
 15 16  1  0
 15 17  1  0
 17 18  1  0
 17 19  2  0
 12 19  1  0
  9 20  1  0
  6 20  1  0
 21 20  1  0
 21 22  1  6
 23 22  1  0
 23 24  1  6
 24 25  1  0
 25 26  1  0
 26 27  1  0
 27 28  2  0
 28 29  1  0
 29 30  2  0
 30 31  1  0
 31 32  3  0
 30 33  1  0
 33 34  2  0
 27 34  1  0
 35 23  1  0
 35 36  1  1
 35 37  1  0
 37 21  1  0
 37 38  1  1
M  END
> <Library>
Bioactives

> <Batch>
2012

> <PLATE>
B1002L2012M01

> <WELL>
B10

> <EOS>
EOS100649

> <CCMF_source_vial_barcode>
LV2001695445

> <concentration_mM>
10

> <volume_ul>
30

$$$$
EOS100650
  SciTegic04282016392D

 31 33  0  0  0  0            999 V2000
    0.7145   -0.2062    0.0000 C   0  0
    0.7145   -1.0313    0.0000 C   0  0
    0.0000   -1.4437    0.0000 C   0  0
   -0.7145   -1.0313    0.0000 C   0  0
   -0.7145   -0.2062    0.0000 C   0  0
    0.0000    0.2062    0.0000 C   0  0
    0.0000    1.0313    0.0000 C   0  0
    0.7145    1.4437    0.0000 C   0  0
    1.4289    1.0313    0.0000 C   0  0
    1.4289    0.2062    0.0000 N   0  0
    0.7145    2.2687    0.0000 C   0  0
    1.4289    2.6812    0.0000 O   0  0
    0.0000    2.6812    0.0000 O   0  0
   -3.5724   -1.0313    0.0000 C   0  0
   -3.5724   -0.2062    0.0000 C   0  0
   -2.8579    0.2062    0.0000 C   0  0
   -2.1434   -0.2062    0.0000 C   0  0
   -2.1434   -1.0313    0.0000 C   0  0
   -2.8579   -1.4437    0.0000 C   0  0
   -1.4289   -1.4437    0.0000 C   0  0
   -1.4289    0.2062    0.0000 F   0  0
   -2.8579    1.0313    0.0000 Cl  0  0
    2.1434   -1.0313    0.0000 C   0  0
    2.1434   -0.2062    0.0000 C   0  0  2  0  0  0
    2.8578    0.2062    0.0000 C   0  0
    3.5724   -0.2062    0.0000 C   0  0
    2.8578    1.0313    0.0000 C   0  0
    2.8578   -1.4437    0.0000 O   0  0
    0.7145   -2.6812    0.0000 C   0  0
    0.0000   -2.2687    0.0000 O   0  0
   -0.7145    1.4437    0.0000 O   0  0
  1  2  2  0
  1  6  1  0
  1 10  1  0
  2  3  1  0
  3  4  2  0
  3 30  1  0
  4  5  1  0
  4 20  1  0
  5  6  2  0
  6  7  1  0
  7  8  1  0
  7 31  2  0
  8  9  2  0
  8 11  1  0
  9 10  1  0
 24 10  1  0
 11 12  2  0
 11 13  1  0
 14 15  2  0
 14 19  1  0
 15 16  1  0
 16 17  2  0
 16 22  1  0
 17 18  1  0
 17 21  1  0
 18 19  2  0
 18 20  1  0
 24 23  1  1
 23 28  1  0
 24 25  1  0
 25 26  1  0
 25 27  1  0
 29 30  1  0
M  END
> <Library>
Bioactives

> <Batch>
2012

> <PLATE>
B1002L2012M01

> <WELL>
D10

> <EOS>
EOS100650

> <CCMF_source_vial_barcode>
LV2001696022

> <concentration_mM>
10

> <volume_ul>
30

$$$$
EOS100651
  SciTegic04282016392D

 37 39  0  0  1  0            999 V2000
    2.2564   -2.1769    0.0000 C   0  0
    2.2564   -3.0020    0.0000 C   0  0
    2.9721   -3.4194    0.0000 C   0  0
    3.6878   -3.0020    0.0000 N   0  0
    3.6878   -2.1769    0.0000 C   0  0  2  0  0  0
    2.9721   -1.7694    0.0000 S   0  0
    4.5128   -2.1769    0.0000 C   0  0  1  0  0  0
    4.5128   -3.0020    0.0000 C   0  0
    5.0993   -3.5884    0.0000 O   0  0
    4.7216   -1.3817    0.0000 N   0  0
    4.1451   -0.7952    0.0000 C   0  0
    4.3538    0.0000    0.0000 O   0  0
    3.3498   -1.0139    0.0000 C   0  0  1  0  0  0
    3.5586   -1.8091    0.0000 C   0  0
    2.9721   -2.3956    0.0000 C   0  0
    3.1908   -3.1908    0.0000 C   0  0
    3.9860   -3.3996    0.0000 C   0  0
    4.5725   -2.8230    0.0000 C   0  0
    4.3538   -2.0278    0.0000 C   0  0
    2.5447   -1.2226    0.0000 S   0  0
    2.3359   -0.4274    0.0000 O   0  0
    2.7634   -2.0278    0.0000 O   0  0
    1.7495   -1.4413    0.0000 O   0  5
    2.9721   -4.2445    0.0000 C   0  0
    2.2564   -4.6520    0.0000 O   0  0
    3.6878   -4.6520    0.0000 O   0  5
    1.5408   -3.4194    0.0000 C   0  0
    1.5408   -4.2445    0.0000 N   0  3
    0.8350   -4.6520    0.0000 C   0  0
    0.8350   -5.4770    0.0000 C   0  0
    1.5408   -5.8945    0.0000 C   0  0
    2.2564   -5.4770    0.0000 C   0  0
    2.2564   -4.6520    0.0000 C   0  0
    1.5408   -6.7196    0.0000 C   0  0
    0.8350   -7.1271    0.0000 O   0  0
    2.2564   -7.1271    0.0000 N   0  0
    0.0000   -2.5944    0.0000 Na  0  3
  1  2  1  0
  1  6  1  0
  2  3  2  0
  2 27  1  0
  3  4  1  0
  3 24  1  0
  5  4  1  6
  4  8  1  0
  5  6  1  0
  5  7  1  0
  7  8  1  0
  7 10  1  6
  8  9  2  0
 10 11  1  0
 11 12  2  0
 13 11  1  0
 13 14  1  0
 13 20  1  1
 14 15  2  0
 14 19  1  0
 15 16  1  0
 16 17  2  0
 17 18  1  0
 18 19  2  0
 20 21  2  0
 20 22  2  0
 20 23  1  0
 24 25  2  0
 24 26  1  0
 27 28  1  0
 28 29  2  0
 28 33  1  0
 29 30  1  0
 30 31  2  0
 31 32  1  0
 31 34  1  0
 32 33  2  0
 34 35  2  0
 34 36  1  0
M  CHG  4  23  -1  26  -1  28   1  37   1
M  END
> <Library>
Bioactives

> <Batch>
2012

> <PLATE>
B1002L2012M01

> <WELL>
F10

> <EOS>
EOS100651

> <CCMF_source_vial_barcode>
LV2001696669

> <concentration_mM>
10

> <volume_ul>
30

$$$$
EOS100652
  SciTegic04282016392D

 32 37  0  0  1  0            999 V2000
    5.6833    4.9580    0.0000 O   0  0
    6.2964    4.4059    0.0000 C   0  0
    7.1034    4.5775    0.0000 N   0  0
    7.5159    3.8630    0.0000 N   0  0
    6.9638    3.2499    0.0000 C   0  0
    7.1354    2.4429    0.0000 C   0  0
    7.9200    2.1880    0.0000 C   0  0  2  0  0  0
    8.5874    2.6729    0.0000 C   0  0
    9.2549    2.1880    0.0000 C   0  0
    8.9999    1.4034    0.0000 N   0  0
    9.4849    0.7359    0.0000 C   0  0
   10.3053    0.8221    0.0000 C   0  0
   10.9728    1.3071    0.0000 C   0  0
   11.0590    0.4866    0.0000 C   0  0
    9.1493   -0.0178    0.0000 O   0  0
    8.1749    1.4034    0.0000 C   0  0
    6.2102    3.5854    0.0000 N   0  0
    5.4957    3.1729    0.0000 C   0  0
    5.4957    2.3479    0.0000 C   0  0
    4.7812    1.9354    0.0000 C   0  0
    4.0668    2.3479    0.0000 C   0  0
    3.3523    1.9354    0.0000 C   0  0
    3.3523    1.1104    0.0000 C   0  0
    2.6378    0.6979    0.0000 C   0  0
    1.9233    1.1104    0.0000 C   0  0
    1.1387    0.8555    0.0000 O   0  0
    0.6538    1.5229    0.0000 C   0  0
    1.1387    2.1904    0.0000 C   0  0
    1.9233    1.9354    0.0000 C   0  0
    2.6378    2.3479    0.0000 C   0  0
    4.0668    3.1729    0.0000 C   0  0
    4.7812    3.5854    0.0000 C   0  0
  1  2  2  0
  2  3  1  0
  3  4  1  0
  4  5  2  0
  5  6  1  0
  7  6  1  6
  7  8  1  0
  8  9  1  0
  9 10  1  0
 10 11  1  0
 11 12  1  0
 12 13  1  0
 13 14  1  0
 12 14  1  0
 11 15  2  0
 10 16  1  0
  7 16  1  0
  5 17  1  0
  2 17  1  0
 17 18  1  0
 18 19  2  0
 19 20  1  0
 20 21  2  0
 21 22  1  0
 22 23  2  0
 23 24  1  0
 24 25  2  0
 25 26  1  0
 26 27  1  0
 27 28  2  0
 25 29  1  0
 28 29  1  0
 29 30  2  0
 22 30  1  0
 21 31  1  0
 31 32  2  0
 18 32  1  0
M  END
> <Library>
Bioactives

> <Batch>
2012

> <PLATE>
B1002L2012M01

> <WELL>
H10

> <EOS>
EOS100652

> <CCMF_source_vial_barcode>
LV2001696047

> <concentration_mM>
10

> <volume_ul>
30

$$$$
EOS100653
  SciTegic04282016392D

 22 24  0  0  0  0            999 V2000
    4.6667   -2.4917    0.0000 C   0  0
    5.3750   -2.0792    0.0000 C   0  0
    6.0917   -3.3167    0.0000 C   0  0
    6.0917   -2.4875    0.0000 C   0  0
    4.6667   -3.3167    0.0000 C   0  0
    5.3792   -3.7292    0.0000 O   0  0
    3.9500   -2.0792    0.0000 C   0  0
    6.8042   -3.7250    0.0000 C   0  0
    3.9500   -3.7375    0.0000 C   0  0
    3.2375   -2.5000    0.0000 C   0  0
    7.5167   -3.3042    0.0000 C   0  0
    8.2292   -3.7125    0.0000 C   0  0
    3.2375   -3.3250    0.0000 C   0  0
    5.3667   -1.2542    0.0000 O   0  0
    8.2417   -4.5417    0.0000 C   0  0
    6.8125   -4.5500    0.0000 C   0  0
    7.5250   -4.9542    0.0000 C   0  0
    3.9417   -1.2542    0.0000 O   0  0
    8.9417   -3.2917    0.0000 O   0  0
    2.5167   -3.7292    0.0000 O   0  0
    8.9542   -4.9542    0.0000 O   0  0
    8.9542   -5.7792    0.0000 C   0  0
  2  1  1  0
  3  6  1  0
  4  2  1  0
  5  1  1  0
  6  5  1  0
  7  1  2  0
  8  3  1  0
  9  5  2  0
 10  7  1  0
 11  8  2  0
 12 11  1  0
 13 10  2  0
 14  2  2  0
 15 17  1  0
 16  8  1  0
 17 16  2  0
 18  7  1  0
 19 12  1  0
 20 13  1  0
 21 15  1  0
 22 21  1  0
  3  4  2  0
  9 13  1  0
 15 12  2  0
M  END
> <Library>
Bioactives

> <Batch>
2012

> <PLATE>
B1002L2012M01

> <WELL>
J10

> <EOS>
EOS100653

> <CCMF_source_vial_barcode>
LV2001696648

> <concentration_mM>
10

> <volume_ul>
30

$$$$
EOS100654
  SciTegic04282016392D

 30 32  0  0  0  0            999 V2000
   -0.3919    1.5434    0.0000 C   0  0
   -1.7290    1.5434    0.0000 N   0  0
   -1.0690    2.0281    0.0000 C   0  0
   -1.4815    0.7493    0.0000 N   0  0
   -0.6565    0.7493    0.0000 C   0  0
    0.3919    1.7944    0.0000 C   0  0
    2.2310    0.1341    0.0000 C   0  0
    2.4063    0.9350    0.0000 C   0  0
    1.4472   -0.1272    0.0000 C   0  0
    1.0003    1.2443    0.0000 C   0  0
    2.8394   -0.4228    0.0000 O   0  0
   -2.5128    1.7909    0.0000 C   0  0
   -1.0690    2.8531    0.0000 O   0  0
    1.7875    1.4918    0.0000 C   0  0
    0.8388    0.4331    0.0000 C   0  0
    3.2828   -1.7841    0.0000 C   0  0
    4.0734   -1.5297    0.0000 O   0  0
    2.6641   -1.2307    0.0000 C   0  0
    3.1900    1.1825    0.0000 Cl  0  0
    1.2822   -0.9316    0.0000 O   0  0
    3.1178   -2.5919    0.0000 O   0  0
   -0.1615    0.0893    0.0000 C   0  0
   -3.1212    1.2443    0.0000 C   0  0
   -2.6881    2.5987    0.0000 C   0  0
    0.4985   -1.1859    0.0000 C   0  0
    2.3306   -2.8497    0.0000 C   0  0
    0.3232   -1.9800    0.0000 C   0  0
   -3.4718    2.8531    0.0000 C   0  0
   -3.9050    1.4918    0.0000 C   0  0
   -4.0803    2.2997    0.0000 C   0  0
  2  3  1  0
  3  1  1  0
  4  5  2  0
  5  1  1  0
  6  1  2  0
  7  9  2  0
  8 14  2  0
  9 15  1  0
 10  6  1  0
 11  7  1  0
 12  2  1  0
 13  3  2  0
 14 10  1  0
 15 10  2  0
 16 18  1  0
 17 16  2  0
 18 11  1  0
 19  8  1  0
 20  9  1  0
 21 16  1  0
 22  5  1  0
 23 12  2  0
 24 12  1  0
 25 20  1  0
 26 21  1  0
 27 25  1  0
 28 24  2  0
 29 23  1  0
 30 28  1  0
  2  4  1  0
  8  7  1  0
 29 30  2  0
M  END
> <Library>
Bioactives

> <Batch>
2012

> <PLATE>
B1002L2012M01

> <WELL>
L10

> <EOS>
EOS100654

> <CCMF_source_vial_barcode>
LV2001695393

> <concentration_mM>
10

> <volume_ul>
30

$$$$
EOS100655
  SciTegic04282016392D

 40 41  0  0  0  0            999 V2000
    1.7862    2.0625    0.0000 O   0  0
    1.7862    1.2375    0.0000 C   0  0
    2.5006    0.8250    0.0000 O   0  0
    1.0717    0.8250    0.0000 C   0  0
    1.0717    0.0000    0.0000 C   0  0  2  0  0  0
    0.3572   -0.4125    0.0000 N   0  0
   -0.3572    0.0000    0.0000 C   0  0
   -1.0717   -0.4125    0.0000 C   0  0  1  0  0  0
   -1.7862    0.0000    0.0000 N   0  0
   -2.5006   -0.4125    0.0000 C   0  0
   -3.2151    0.0000    0.0000 C   0  0
   -3.9296   -0.4125    0.0000 N   0  0
   -4.6441    0.0000    0.0000 C   0  0
   -4.6441    0.8250    0.0000 C   0  0
   -5.3585    1.2375    0.0000 C   0  0
   -6.0730    0.8250    0.0000 C   0  0
   -6.0730    0.0000    0.0000 C   0  0
   -5.3585   -0.4125    0.0000 C   0  0
   -5.3585   -1.2375    0.0000 C   0  0
   -5.3585   -2.0625    0.0000 C   0  0
   -6.0730   -1.6500    0.0000 C   0  0
   -4.6441   -1.6500    0.0000 C   0  0
   -3.2151    0.8250    0.0000 O   0  0
   -2.5006   -1.2375    0.0000 O   0  0
   -1.0717   -1.2375    0.0000 C   0  0
   -0.3572    0.8250    0.0000 O   0  0
    1.7862   -0.4125    0.0000 C   0  0
    2.5006    0.0000    0.0000 C   0  0
    3.2151   -0.4125    0.0000 O   0  0
    3.9296    0.0000    0.0000 C   0  0
    4.6441   -0.4125    0.0000 C   0  0
    4.6441   -1.2375    0.0000 F   0  0
    5.3585    0.0000    0.0000 C   0  0
    6.0730   -0.4125    0.0000 F   0  0
    5.3585    0.8250    0.0000 C   0  0
    4.6441    1.2375    0.0000 C   0  0
    4.6441    2.0625    0.0000 F   0  0
    3.9296    0.8250    0.0000 C   0  0
    3.2151    1.2375    0.0000 F   0  0
    1.7862   -1.2375    0.0000 O   0  0
  1  2  2  0
  2  3  1  0
  2  4  1  0
  5  4  1  0
  5  6  1  1
  6  7  1  0
  8  7  1  0
  8  9  1  0
  9 10  1  0
 10 11  1  0
 11 12  1  0
 12 13  1  0
 13 14  2  0
 14 15  1  0
 15 16  2  0
 16 17  1  0
 17 18  2  0
 13 18  1  0
 18 19  1  0
 19 20  1  0
 19 21  1  0
 19 22  1  0
 11 23  2  0
 10 24  2  0
  8 25  1  6
  7 26  2  0
  5 27  1  0
 27 28  1  0
 28 29  1  0
 29 30  1  0
 30 31  2  0
 31 32  1  0
 31 33  1  0
 33 34  1  0
 33 35  2  0
 35 36  1  0
 36 37  1  0
 36 38  2  0
 30 38  1  0
 38 39  1  0
 27 40  2  0
M  END
> <Library>
Bioactives

> <Batch>
2012

> <PLATE>
B1002L2012M01

> <WELL>
N10

> <EOS>
EOS100655

> <CCMF_source_vial_barcode>
LV2001696056

> <concentration_mM>
10

> <volume_ul>
30

$$$$
EOS100656
  SciTegic04282016392D

 24 28  0  0  0  0            999 V2000
    4.5233    0.6147    0.0000 N   0  0
    5.0754    1.2278    0.0000 C   0  0
    4.8204    2.0124    0.0000 C   0  0
    5.3725    2.6255    0.0000 C   0  0
    4.9600    3.3400    0.0000 N   0  0
    5.2955    4.0936    0.0000 C   0  0
    4.8830    4.8081    0.0000 C   0  0
    5.4351    5.4212    0.0000 C   0  0
    6.1887    5.0856    0.0000 C   0  0
    6.1025    4.2652    0.0000 C   0  0
    4.1530    3.1684    0.0000 N   0  0
    4.0668    2.3479    0.0000 C   0  0
    3.3523    1.9354    0.0000 C   0  0
    3.3523    1.1104    0.0000 C   0  0
    2.6378    0.6979    0.0000 N   0  0
    1.9233    1.1104    0.0000 C   0  0
    1.1387    0.8555    0.0000 N   0  0
    0.6538    1.5229    0.0000 C   0  0
    1.1387    2.1904    0.0000 C   0  0
    1.9233    1.9354    0.0000 C   0  0
    2.6378    2.3479    0.0000 C   0  0
    6.1794    2.4540    0.0000 N   0  0
    6.4344    1.6693    0.0000 C   0  0
    5.8823    1.0562    0.0000 N   0  0
  1  2  1  0
  2  3  2  0
  3  4  1  0
  4  5  1  0
  5  6  1  0
  6  7  1  0
  7  8  1  0
  8  9  1  0
  9 10  1  0
  6 10  1  0
  5 11  1  0
 11 12  2  0
  3 12  1  0
 12 13  1  0
 13 14  2  0
 14 15  1  0
 15 16  2  0
 16 17  1  0
 17 18  1  0
 18 19  2  0
 16 20  1  0
 19 20  1  0
 20 21  2  0
 13 21  1  0
  4 22  2  0
 22 23  1  0
 23 24  2  0
  2 24  1  0
M  END
> <Library>
Bioactives

> <Batch>
2012

> <PLATE>
B1002L2012M01

> <WELL>
P10

> <EOS>
EOS100656

> <CCMF_source_vial_barcode>
LV2001695995

> <concentration_mM>
10

> <volume_ul>
30

$$$$
EOS100657
  SciTegic04282016392D

 34 38  0  0  0  0            999 V2000
    1.4265    1.2375    0.0000 C   0  0
    1.4265    0.4125    0.0000 C   0  0
    2.1410    0.0000    0.0000 C   0  0
    2.8554    0.4125    0.0000 C   0  0
    2.8554    1.2375    0.0000 C   0  0
    2.1410    1.6500    0.0000 C   0  0
    0.7145    1.6486    0.0000 C   0  0
    0.0000    1.2361    0.0000 O   0  0
    0.7145    0.0014    0.0000 O   0  0
    0.0025    0.4125    0.0000 C   0  0
    3.5675    1.6486    0.0000 C   0  0
    4.2820    1.2361    0.0000 N   0  0
    4.9964    1.6486    0.0000 C   0  0
    4.9964    2.4736    0.0000 C   0  0
    4.2820    2.8861    0.0000 C   0  0
    3.5675    2.4736    0.0000 C   0  0
    5.7110    1.2361    0.0000 N   0  0
    6.4254    1.6486    0.0000 C   0  0
    6.4254    2.4736    0.0000 N   0  0
    5.7110    2.8861    0.0000 C   0  0
    5.7110    3.7083    0.0000 N   0  0
    6.4254    4.1208    0.0000 C   0  0  2  0  0  0
    6.4254    4.9458    0.0000 C   0  0
    5.7110    5.3583    0.0000 O   0  0
    4.9964    4.9458    0.0000 C   0  0
    4.9964    4.1208    0.0000 C   0  0
    7.1374    1.2375    0.0000 N   0  0
    7.1374    0.4125    0.0000 C   0  0  2  0  0  0
    7.8519    0.0000    0.0000 C   0  0
    8.5664    0.4125    0.0000 O   0  0
    8.5664    1.2375    0.0000 C   0  0
    7.8519    1.6500    0.0000 C   0  0
    6.4254    0.0014    0.0000 C   0  0
    7.1374    3.7097    0.0000 C   0  0
  1  2  2  0
  2  3  1  0
  3  4  2  0
  4  5  1  0
  5  6  2  0
  6  1  1  0
  1  7  1  0
  7  8  1  0
  2  9  1  0
  9 10  1  0
  5 11  1  0
 11 12  1  0
 12 13  2  0
 13 14  1  0
 14 15  2  0
 15 16  1  0
 16 11  2  0
 13 17  1  0
 17 18  2  0
 18 19  1  0
 19 20  2  0
 20 14  1  0
 20 21  1  0
 22 21  1  0
 22 23  1  0
 23 24  1  0
 24 25  1  0
 25 26  1  0
 26 21  1  0
 18 27  1  0
 28 27  1  0
 28 29  1  0
 29 30  1  0
 30 31  1  0
 31 32  1  0
 32 27  1  0
 28 33  1  6
 22 34  1  6
M  END
> <Library>
Bioactives

> <Batch>
2012

> <PLATE>
B1002L2012M01

> <WELL>
B12

> <EOS>
EOS100657

> <CCMF_source_vial_barcode>
LV2001696036

> <concentration_mM>
10

> <volume_ul>
30

$$$$
EOS100658
  SciTegic04282016392D

 43 46  0  0  0  0            999 V2000
    7.0380   -1.7116    0.0000 C   0  0
    6.3235   -1.2991    0.0000 O   0  0
    5.6091   -1.7116    0.0000 C   0  0
    5.6091   -2.5366    0.0000 C   0  0
    4.8946   -2.9491    0.0000 C   0  0
    4.8946   -3.7741    0.0000 C   0  0
    4.1801   -2.5366    0.0000 C   0  0
    3.4656   -2.9491    0.0000 S   0  0
    3.4656   -3.7741    0.0000 C   0  0
    4.1331   -4.2590    0.0000 C   0  0
    3.8781   -5.0437    0.0000 N   0  0
    3.0531   -5.0437    0.0000 C   0  0
    2.5682   -5.7111    0.0000 N   0  0
    2.9038   -6.4648    0.0000 C   0  0
    2.4189   -7.1322    0.0000 C   0  0
    2.7544   -7.8859    0.0000 C   0  0
    2.2695   -8.5533    0.0000 C   0  0
    1.4490   -8.4671    0.0000 C   0  0
    0.9641   -9.1345    0.0000 C   0  0
    0.1436   -9.0483    0.0000 N   0  0
   -0.3413   -9.7157    0.0000 C   0  0
   -0.0058  -10.4694    0.0000 C   0  0
   -1.1618   -9.6295    0.0000 C   0  0
   -1.9823   -9.5433    0.0000 C   0  0
   -1.2480  -10.4500    0.0000 C   0  0
   -1.0756   -8.8090    0.0000 C   0  0
    1.1135   -7.7134    0.0000 C   0  0
    1.5984   -7.0460    0.0000 C   0  0
    3.7243   -6.5510    0.0000 O   0  0
    2.7982   -4.2590    0.0000 S   0  0
    4.1801   -1.7116    0.0000 C   0  0
    4.8946   -1.2991    0.0000 C   0  0
    4.8946   -0.4741    0.0000 C   0  0
    5.6091   -0.0616    0.0000 N   0  0
    5.6091    0.7634    0.0000 C   0  0
    6.3235    1.1759    0.0000 C   0  0
    7.0380    0.7634    0.0000 N   0  0
    7.7525    1.1759    0.0000 C   0  0
    7.7525    2.0009    0.0000 C   0  0
    8.4669    0.7634    0.0000 O   0  0
    7.0380   -0.0616    0.0000 C   0  0
    6.3235   -0.4741    0.0000 C   0  0
    4.1801   -0.0616    0.0000 O   0  0
  1  2  1  0
  2  3  1  0
  3  4  2  0
  4  5  1  0
  5  6  1  0
  5  7  2  0
  7  8  1  0
  8  9  1  0
  9 10  2  0
 10 11  1  0
 11 12  2  0
 12 13  1  0
 13 14  1  0
 14 15  1  0
 15 16  2  0
 16 17  1  0
 17 18  2  0
 18 19  1  0
 19 20  1  0
 20 21  1  0
 21 22  1  0
 21 23  1  0
 23 24  1  0
 23 25  1  0
 23 26  1  0
 18 27  1  0
 27 28  2  0
 15 28  1  0
 14 29  2  0
 12 30  1  0
  9 30  1  0
  7 31  1  0
 31 32  2  0
  3 32  1  0
 32 33  1  0
 33 34  1  0
 34 35  1  0
 35 36  1  0
 36 37  1  0
 37 38  1  0
 38 39  1  0
 38 40  2  0
 37 41  1  0
 41 42  1  0
 34 42  1  0
 33 43  2  0
M  END
> <Library>
Bioactives

> <Batch>
2012

> <PLATE>
B1002L2012M01

> <WELL>
D12

> <EOS>
EOS100658

> <CCMF_source_vial_barcode>
LV2001695394

> <concentration_mM>
10

> <volume_ul>
30

$$$$
EOS100659
  SciTegic04282016392D

 21 22  0  0  0  0            999 V2000
    7.1893   -4.7512    0.0000 N   0  0
    7.4436   -3.9635    0.0000 C   0  0
    6.3641   -4.7512    0.0000 C   0  0
    6.1141   -3.9635    0.0000 C   0  0
    6.7767   -3.4801    0.0000 S   0  0
    5.3306   -3.7051    0.0000 C   0  0
    7.6770   -5.4181    0.0000 C   0  0
    5.1555   -2.9049    0.0000 C   0  0
    8.2313   -3.7051    0.0000 S   0  0
    7.3394   -6.1683    0.0000 C   0  0
    4.3761   -2.6507    0.0000 C   0  0
    5.8807   -5.4181    0.0000 O   0  0
    7.8187   -6.8392    0.0000 O   0  0
    4.2011   -1.8422    0.0000 C   0  0
    6.5184   -6.2558    0.0000 O   0  0
    5.7682   -2.3506    0.0000 C   0  0
    3.4176   -1.5921    0.0000 C   0  0
    4.8179   -1.2920    0.0000 C   0  0
    4.6429   -0.4876    0.0000 C   0  0
    3.2425   -0.7919    0.0000 C   0  0
    3.8552   -0.2293    0.0000 C   0  0
  2  1  1  0
  3  1  1  0
  4  3  1  0
  5  2  1  0
  6  4  2  0
  7  1  1  0
  8  6  1  0
  9  2  2  0
 10  7  1  0
 11  8  2  0
 12  3  2  0
 13 10  2  0
 14 11  1  0
 15 10  1  0
 16  8  1  0
 17 14  2  0
 18 14  1  0
 19 18  2  0
 20 17  1  0
 21 19  1  0
  4  5  1  0
 21 20  2  0
M  END
> <Library>
Bioactives

> <Batch>
2012

> <PLATE>
B1002L2012M01

> <WELL>
F12

> <EOS>
EOS100659

> <CCMF_source_vial_barcode>
LV2001695378

> <concentration_mM>
10

> <volume_ul>
30

$$$$
EOS100660
  SciTegic04282016392D

 42 48  0  0  1  0            999 V2000
    1.0920    0.8333    0.0000 C   0  0  2  0  0  0
    0.3792    0.4016    0.0000 C   0  0
    1.8054    0.4056    0.0000 C   0  0  2  0  0  0
    1.0880    1.6607    0.0000 C   0  0
    0.3832   -0.4136    0.0000 C   0  0
   -0.3261    0.8333    0.0000 C   0  0
    1.8054   -0.4096    0.0000 C   0  0  1  0  0  0
    2.5998    0.6868    0.0000 C   0  0
    1.8013    2.0846    0.0000 C   0  0
    0.3792    2.0805    0.0000 C   0  0
    1.0961   -0.8210    0.0000 C   0  0  2  0  0  0
   -0.3220   -0.8210    0.0000 C   0  0
   -1.0391    0.4016    0.0000 C   0  0
    2.6038   -0.6663    0.0000 C   0  0
    3.0889    0.0021    0.0000 O   0  0
    2.8607    1.4650    0.0000 O   0  0
    1.8013    2.9116    0.0000 C   0  0
    0.3750    2.9035    0.0000 C   0  0
    1.0961   -1.6484    0.0000 O   0  0
   -1.0391   -0.4176    0.0000 C   0  0
   -1.8338    0.6746    0.0000 O   0  0
    1.0838    3.3152    0.0000 C   0  0
    2.4817    3.3071    0.0000 O   0  0
   -0.3220    3.2989    0.0000 O   0  0
    0.3792   -2.0559    0.0000 C   0  0  2  0  0  0
   -1.8298   -0.6786    0.0000 O   0  0
   -2.3063   -0.0101    0.0000 C   0  0
    1.0838    4.1218    0.0000 O   0  0
    3.1908    2.9035    0.0000 C   0  0
   -1.0227    2.9035    0.0000 C   0  0
   -0.3301   -1.6484    0.0000 O   0  0
    0.3792   -2.8830    0.0000 C   0  0  1  0  0  0
   -1.0472   -2.0559    0.0000 C   0  0  1  0  0  0
   -0.3301   -3.2988    0.0000 C   0  0  2  0  0  0
    1.0961   -3.2988    0.0000 O   0  0
   -1.0472   -2.8830    0.0000 C   0  0  2  0  0  0
   -1.7646   -1.6484    0.0000 C   0  0
   -0.3301   -4.1218    0.0000 O   0  0
   -1.7646   -3.2988    0.0000 O   0  0
   -2.4735   -2.0559    0.0000 O   0  0
   -2.4735   -2.8830    0.0000 C   0  0  1  0  0  0
   -3.1908   -3.2988    0.0000 C   0  0
  1  2  1  1
  3  1  1  0
  1  4  1  0
  2  5  2  0
  2  6  1  0
  3  7  1  0
  3  8  1  1
  4  9  2  0
  4 10  1  0
 11  5  1  0
  5 12  1  0
  6 13  2  0
  7 14  1  6
  8 15  1  0
  8 16  2  0
  9 17  1  0
 10 18  2  0
 11 19  1  6
 12 20  2  0
 13 21  1  0
 17 22  2  0
 17 23  1  0
 18 24  1  0
 25 19  1  1
 20 26  1  0
 21 27  1  0
 22 28  1  0
 23 29  1  0
 24 30  1  0
 25 31  1  0
 32 25  1  0
 33 31  1  1
 32 34  1  0
 32 35  1  6
 36 33  1  0
 33 37  1  0
 34 38  1  1
 36 39  1  6
 37 40  1  0
 41 39  1  0
 41 42  1  6
  7 11  1  0
 13 20  1  0
 14 15  1  0
 18 22  1  0
 26 27  1  0
 34 36  1  0
 41 40  1  0
M  END
> <Library>
Bioactives

> <Batch>
2012

> <PLATE>
B1002L2012M01

> <WELL>
H12

> <EOS>
EOS100660

> <CCMF_source_vial_barcode>
LV2001695930

> <concentration_mM>
10

> <volume_ul>
30

$$$$
EOS100661
  SciTegic04282016392D

 34 38  0  0  0  0            999 V2000
   10.1834   -9.4534    0.0000 C   0  0
   10.1834   -8.6283    0.0000 C   0  0
   10.8978   -8.2160    0.0000 C   0  0
   11.6123   -8.6283    0.0000 C   0  0
   11.6123   -9.4534    0.0000 C   0  0
   10.8978   -9.8660    0.0000 N   0  0
    9.4689   -9.8660    0.0000 O   0  0
    9.4689   -8.2160    0.0000 C   0  0
    9.3828   -7.3954    0.0000 N   0  0
    8.5757   -7.2239    0.0000 C   0  0
    8.1632   -7.9383    0.0000 C   0  0
    8.7152   -8.5514    0.0000 N   0  0
    8.1632   -6.5095    0.0000 C   0  0
    7.3382   -6.5095    0.0000 C   0  0
    6.9257   -7.2239    0.0000 C   0  0
    7.3382   -7.9383    0.0000 C   0  0
    6.9257   -4.3659    0.0000 C   0  0
    7.3382   -5.0804    0.0000 C   0  0
    6.9257   -5.7950    0.0000 N   0  0
    6.1006   -5.7950    0.0000 C   0  0
    5.6882   -5.0804    0.0000 C   0  0
    6.1006   -4.3659    0.0000 O   0  0
    6.9257   -8.6528    0.0000 C   0  0
   10.8978   -7.3909    0.0000 N   0  0
   11.6123   -6.9783    0.0000 C   0  0
   12.3269   -7.3909    0.0000 C   0  0  1  0  0  0
   12.3269   -8.2160    0.0000 O   0  0
   13.0413   -6.9783    0.0000 C   0  0
   13.0413   -6.1534    0.0000 C   0  0
   13.7558   -5.7409    0.0000 C   0  0
   14.4702   -6.1534    0.0000 C   0  0
   14.4702   -6.9783    0.0000 C   0  0
   13.7558   -7.3909    0.0000 C   0  0
   13.7558   -4.9159    0.0000 Cl  0  0
  1  2  1  0
  2  3  2  0
  3  4  1  0
  4  5  2  0
  5  6  1  0
  1  6  1  0
  1  7  2  0
  8  9  2  0
  9 10  1  0
 10 11  1  0
 11 12  1  0
  8 12  1  0
 13 14  1  0
 14 15  2  0
 15 16  1  0
 11 16  2  0
 10 13  2  0
 17 18  1  0
 18 19  1  0
 19 20  1  0
 20 21  1  0
 21 22  1  0
 17 22  1  0
 14 19  1  0
 16 23  1  0
  2  8  1  0
 26 25  1  0
 26 27  1  6
 28 29  2  0
 29 30  1  0
 30 31  2  0
 31 32  1  0
 32 33  2  0
 28 33  1  0
 30 34  1  0
 26 28  1  0
 24 25  1  0
  3 24  1  0
M  END
> <Library>
Bioactives

> <Batch>
2012

> <PLATE>
B1002L2012M01

> <WELL>
J12

> <EOS>
EOS100661

> <CCMF_source_vial_barcode>
LV2001696055

> <concentration_mM>
10

> <volume_ul>
30

$$$$
EOS100662
  SciTegic04282016392D

 35 38  0  0  0  0            999 V2000
    0.8839   -0.0294    0.0000 C   0  0
    0.1695   -0.4420    0.0000 C   0  0
    0.1695   -1.2670    0.0000 C   0  0
    0.8839   -1.6795    0.0000 C   0  0
    1.5984   -1.2670    0.0000 C   0  0
    1.5984   -0.4420    0.0000 C   0  0
    2.3129   -0.0295    0.0000 C   0  0
    3.0665   -0.3650    0.0000 N   0  0
    3.6186    0.2481    0.0000 C   0  0
    3.2061    0.9625    0.0000 S   0  0
    2.3991    0.7910    0.0000 C   0  0
    1.7860    1.3431    0.0000 C   0  0
    1.9576    2.1500    0.0000 N   0  0
    1.3445    2.7021    0.0000 C   0  0
    0.5598    2.4472    0.0000 N   0  0
    0.3883    1.6402    0.0000 C   0  0
    1.0014    1.0881    0.0000 C   0  0
   -0.5450   -0.0295    0.0000 N   0  0
   -1.2595   -0.4420    0.0000 S   0  0
   -1.9740   -0.0295    0.0000 C   0  0
   -1.2595   -1.2670    0.0000 O   0  0
   -1.9739   -0.8545    0.0000 O   0  0
   -1.9740    0.7955    0.0000 C   0  0
   -2.6885    1.2080    0.0000 C   0  0
   -3.4029    0.7955    0.0000 C   0  0
   -3.4029   -0.0295    0.0000 C   0  0
   -2.6884   -0.4420    0.0000 C   0  0
   -2.6884   -1.2670    0.0000 F   0  0
   -1.2595    1.2080    0.0000 F   0  0
    1.5160    3.5091    0.0000 N   0  0
    4.4390    0.1618    0.0000 C   0  0
    4.9240    0.8292    0.0000 C   0  0
    4.7746   -0.5919    0.0000 C   0  0
    5.2595    0.0756    0.0000 C   0  0
    0.8839    0.7956    0.0000 F   0  0
  1  2  2  0
  1  6  1  0
  2  3  1  0
  3  4  2  0
  4  5  1  0
  5  6  2  0
  6  7  1  0
  7  8  1  0
  7 11  2  0
  8  9  2  0
  9 10  1  0
 10 11  1  0
 11 12  1  0
 12 13  2  0
 12 17  1  0
 13 14  1  0
 14 15  2  0
 15 16  1  0
 16 17  2  0
  2 18  1  0
 18 19  1  0
 19 20  1  0
 19 21  2  0
 19 22  2  0
 20 23  2  0
 20 27  1  0
 23 24  1  0
 24 25  2  0
 25 26  1  0
 26 27  2  0
 27 28  1  0
 23 29  1  0
 14 30  1  0
  9 31  1  0
 31 32  1  0
 31 33  1  0
 31 34  1  0
  1 35  1  0
M  END
> <Library>
Bioactives

> <Batch>
2012

> <PLATE>
B1002L2012M01

> <WELL>
L12

> <EOS>
EOS100662

> <CCMF_source_vial_barcode>
LV2001696041

> <concentration_mM>
10

> <volume_ul>
30

$$$$
EOS100663
  SciTegic04282016392D

 14 16  0  0  0  0            999 V2000
    3.9295   -3.3410    0.0000 C   0  0  1  0  0  0
    4.7132   -3.0853    0.0000 C   0  0  2  0  0  0
    5.1972   -3.7535    0.0000 C   0  0
    3.9295   -4.1660    0.0000 C   0  0
    4.7132   -4.4217    0.0000 O   0  0
    3.3438   -2.7581    0.0000 C   0  0  1  0  0  0
    4.7132   -2.2604    0.0000 C   0  0  2  0  0  0
    3.7563   -2.0404    0.0000 O   0  0
    3.5171   -4.8782    0.0000 O   0  0
    5.9094   -4.1660    0.0000 O   0  0
    4.1275   -1.6774    0.0000 C   0  0
    3.3438   -1.9332    0.0000 C   0  0
    5.5107   -2.8736    0.0000 C   0  0
    3.1293   -3.5555    0.0000 C   0  0
  1  2  1  0
  2  3  1  0
  1  4  1  0
  5  4  1  0
  1  6  1  0
  2  7  1  0
  6  8  1  1
  9  4  2  0
 10  3  2  0
 11 12  1  0
  6 12  1  0
  2 13  1  6
  1 14  1  6
  7  8  1  1
  5  3  1  0
  7 11  1  0
M  END
> <Library>
Bioactives

> <Batch>
2012

> <PLATE>
B1002L2012M01

> <WELL>
N12

> <EOS>
EOS100663

> <CCMF_source_vial_barcode>
LV2001695381

> <concentration_mM>
10

> <volume_ul>
30

$$$$
EOS100664
  SciTegic04282016392D

 32 36  0  0  0  0            999 V2000
   11.5626  -18.0568    0.0000 C   0  0  1  0  0  0
   12.2771  -17.6443    0.0000 C   0  0
   12.9916  -18.0568    0.0000 C   0  0
   12.9916  -18.8818    0.0000 C   0  0  1  0  0  0
   12.2771  -19.2943    0.0000 C   0  0
   11.5626  -18.8818    0.0000 C   0  0
   10.8481  -17.6443    0.0000 O   0  0
   13.7060  -19.2943    0.0000 N   0  0
   16.6341  -17.8019    0.0000 N   0  0
   17.1190  -18.4693    0.0000 C   0  0
   16.6341  -19.1367    0.0000 N   0  0
   15.8495  -18.8818    0.0000 C   0  0
   15.1350  -19.2943    0.0000 N   0  0
   14.4205  -18.8818    0.0000 C   0  0
   14.4205  -18.0568    0.0000 N   0  0
   15.1350  -17.6443    0.0000 C   0  0
   15.8495  -18.0568    0.0000 C   0  0
   17.9441  -18.4693    0.0000 N   0  0
   18.3566  -17.7548    0.0000 C   0  0
   17.9441  -17.0403    0.0000 C   0  0
   18.3566  -16.3259    0.0000 C   0  0
   19.1815  -16.3259    0.0000 C   0  0
   19.5940  -17.0403    0.0000 C   0  0
   19.1815  -17.7548    0.0000 C   0  0
   19.5940  -18.4693    0.0000 F   0  0
   19.5940  -15.6114    0.0000 F   0  0
   17.1190  -17.0403    0.0000 F   0  0
   16.8890  -21.2562    0.0000 O   0  0
   16.4041  -20.5888    0.0000 C   0  0
   16.8890  -19.9214    0.0000 C   0  0  2  0  0  0
   17.6737  -20.1763    0.0000 C   0  0
   17.6737  -21.0013    0.0000 C   0  0
  1  2  1  0
  2  3  1  0
  4  3  1  0
  4  5  1  0
  5  6  1  0
  1  6  1  0
  1  7  1  1
  9 10  2  0
 10 11  1  0
 11 12  1  0
 12 13  2  0
 13 14  1  0
 14 15  2  0
 15 16  1  0
 16 17  2  0
  9 17  1  0
 12 17  1  0
 19 20  2  0
 20 21  1  0
 21 22  2  0
 22 23  1  0
 23 24  2  0
 19 24  1  0
 24 25  1  0
 22 26  1  0
 20 27  1  0
 18 19  1  0
 10 18  1  0
 28 29  1  0
 30 29  1  0
 30 31  1  0
 31 32  1  0
 28 32  1  0
 30 11  1  1
  8 14  1  0
  4  8  1  6
M  END
> <Library>
Bioactives

> <Batch>
2012

> <PLATE>
B1002L2012M01

> <WELL>
P12

> <EOS>
EOS100664

> <CCMF_source_vial_barcode>
LV2001696636

> <concentration_mM>
10

> <volume_ul>
30

$$$$
EOS100665
  SciTegic04282016392D

 20 22  0  0  0  0            999 V2000
   -2.1434   -0.4125    0.0000 C   0  0
   -1.4289    0.0000    0.0000 N   0  0
   -0.7145   -0.4125    0.0000 C   0  0
   -0.7145   -1.2375    0.0000 N   0  0
    0.0000   -1.6500    0.0000 C   0  0
    0.7145   -1.2375    0.0000 C   0  0
    0.7145   -0.4125    0.0000 C   0  0
    1.4289    0.0000    0.0000 C   0  0
    2.1434   -0.4125    0.0000 N   0  0
    2.1434   -1.2375    0.0000 C   0  0
    1.4289   -1.6500    0.0000 N   0  0
    1.4289    0.8250    0.0000 N   0  0
    2.1434    1.2375    0.0000 C   0  0
    2.1434    2.0625    0.0000 C   0  0
    2.8579    2.4750    0.0000 C   0  0
    3.5724    2.0625    0.0000 C   0  0
    3.5724    1.2375    0.0000 C   0  0
    4.2868    0.8250    0.0000 Br  0  0
    2.8579    0.8250    0.0000 C   0  0
    0.0000    0.0000    0.0000 C   0  0
  1  2  1  0
  2  3  1  0
  3  4  2  0
  4  5  1  0
  5  6  2  0
  6  7  1  0
  7  8  1  0
  8  9  2  0
  9 10  1  0
 10 11  2  0
  6 11  1  0
  8 12  1  0
 12 13  1  0
 13 14  2  0
 14 15  1  0
 15 16  2  0
 16 17  1  0
 17 18  1  0
 17 19  2  0
 13 19  1  0
  7 20  2  0
  3 20  1  0
M  END
> <Library>
Bioactives

> <Batch>
2012

> <PLATE>
B1002L2012M01

> <WELL>
B14

> <EOS>
EOS100665

> <CCMF_source_vial_barcode>
LV2001695434

> <concentration_mM>
10

> <volume_ul>
30

$$$$
EOS100666
  SciTegic04282016392D

 24 25  0  0  0  0            999 V2000
    2.9124   -0.8189    0.0000 C   0  0
    2.0935   -0.8189    0.0000 C   0  0
    5.4370   -1.0283    0.0000 N   0  3
    3.3250   -1.5578    0.0000 O   0  0
    3.3250   -0.1232    0.0000 O   0  0
    4.1439   -1.5578    0.0000 C   0  0
    2.0935   -1.6625    0.0000 C   0  0
    4.5749   -0.8436    0.0000 C   0  0
    6.1573   -0.5111    0.0000 Br  0  5
    5.4370   -1.8472    0.0000 C   0  0
    1.2500   -0.8189    0.0000 C   0  0
    4.7227   -2.1736    0.0000 C   0  0
    2.0935    0.0000    0.0000 O   0  0
    6.0773   -1.1514    0.0000 C   0  0
    5.4370   -0.2278    0.0000 C   0  0
    1.3546   -2.0750    0.0000 C   0  0
    2.8139   -2.0750    0.0000 C   0  0
    0.7204   -0.2278    0.0000 C   0  0
    0.7820   -1.5393    0.0000 C   0  0
    1.3546   -2.8940    0.0000 C   0  0
    2.8139   -2.8940    0.0000 C   0  0
    0.0000   -1.2930    0.0000 C   0  0
    0.0000   -0.4926    0.0000 C   0  0
    2.0935   -3.3250    0.0000 C   0  0
  1  2  1  0
  1  4  1  0
  1  5  2  0
  2  7  1  0
  2 11  1  0
  2 13  1  0
  3  8  1  0
  3 14  1  0
  3 15  1  0
  3 10  1  0
  4  6  1  0
  6  8  1  0
  6 12  1  0
  7 16  2  0
  7 17  1  0
 10 12  1  0
 11 18  1  0
 11 19  1  0
 16 20  1  0
 17 21  2  0
 18 23  1  0
 19 22  1  0
 20 24  2  0
 21 24  1  0
 22 23  1  0
M  CHG  2   3   1   9  -1
M  END
> <Library>
Bioactives

> <Batch>
2012

> <PLATE>
B1002L2012M01

> <WELL>
D14

> <EOS>
EOS100666

> <CCMF_source_vial_barcode>
LV2001696683

> <concentration_mM>
10

> <volume_ul>
30

$$$$
EOS100667
  SciTegic04282016392D

 25 28  0  0  0  0            999 V2000
    1.1516   -0.2383    0.0000 C   0  0
    0.3547   -0.0248    0.0000 C   0  0
   -0.0990   -0.7150    0.0000 N   0  0
    0.3547   -1.3594    0.0000 N   0  0
    1.1516   -1.0696    0.0000 C   0  0
    1.8684   -1.4854    0.0000 N   0  0
    2.5855   -1.0696    0.0000 C   0  0
    2.5855   -0.2383    0.0000 N   0  0
    1.8684    0.1734    0.0000 C   0  0
    1.8684    0.9972    0.0000 N   0  0
   -0.0573   -2.0726    0.0000 C   0  0
   -0.4422    0.1889    0.0000 C   0  0
   -0.4422    1.0124    0.0000 C   0  0
    0.2707    1.4243    0.0000 C   0  0
    0.2707    2.2442    0.0000 C   0  0
   -0.4422    2.6521    0.0000 C   0  0
   -1.1554    2.2442    0.0000 C   0  0
   -1.1554    1.4243    0.0000 C   0  0
   -1.8687    2.6560    0.0000 C   0  0
   -2.5855    2.2442    0.0000 C   0  0
   -2.5855    1.4166    0.0000 C   0  0
   -1.8687    1.0010    0.0000 C   0  0
    0.5263   -2.6560    0.0000 C   0  0
   -0.6407   -2.6560    0.0000 C   0  0
   -0.7702   -1.6606    0.0000 C   0  0
  1  2  1  0
  2  3  2  0
  3  4  1  0
  4  5  1  0
  1  5  1  0
  5  6  2  0
  6  7  1  0
  7  8  2  0
  8  9  1  0
  1  9  2  0
  9 10  1  0
  4 11  1  0
  2 12  1  0
 12 13  1  0
 13 14  1  0
 14 15  2  0
 15 16  1  0
 16 17  2  0
 17 18  1  0
 13 18  2  0
 17 19  1  0
 19 20  2  0
 20 21  1  0
 21 22  2  0
 18 22  1  0
 11 23  1  0
 11 24  1  0
 11 25  1  0
M  END
> <Library>
Bioactives

> <Batch>
2012

> <PLATE>
B1002L2012M01

> <WELL>
F14

> <EOS>
EOS100667

> <CCMF_source_vial_barcode>
LV2001695437

> <concentration_mM>
10

> <volume_ul>
30

$$$$
EOS100668
  SciTegic04282016392D

 27 26  0  0  0  0            999 V2000
    1.9928    1.9278    0.0000 C   0  0
    1.9928    0.2734    0.0000 C   0  0  1  0  0  0
    1.2837    0.6812    0.0000 C   0  0  1  0  0  0
    7.0257    1.1215    0.0000 P   0  0
    1.2837    1.5108    0.0000 C   0  0
    1.9928    2.7528    0.0000 C   0  0
    2.7019    0.6812    0.0000 C   0  0  2  0  0  0
    1.9928   -0.5469    0.0000 N   0  0
    2.7019    1.5108    0.0000 C   0  0
    1.2791   -0.9640    0.0000 C   0  0
    0.5608    0.2734    0.0000 O   0  0
    7.0349    1.9464    0.0000 O   0  0
    1.2791    3.1652    0.0000 O   0  0
    0.5608   -0.5469    0.0000 O   0  0
    6.2054    1.1261    0.0000 O   0  0
    7.8599    1.1215    0.0000 O   0  0
    7.0257    0.2920    0.0000 O   0  0
    3.4248    0.2734    0.0000 N   0  0
    2.7111    3.1652    0.0000 O   0  0
   -0.1483    0.6812    0.0000 C   0  0
    1.2791   -1.7935    0.0000 C   0  0
    3.4248    2.7481    0.0000 C   0  0
   -0.8620    0.2734    0.0000 C   0  0
   -0.1529    1.5108    0.0000 C   0  0
    4.1431    3.1652    0.0000 C   0  0
    0.5608    1.9186    0.0000 C   0  0
   -0.8620   -0.5561    0.0000 C   0  0
  2  3  1  0
  3  5  1  0
  5  1  2  0
  6  1  1  0
  7  9  1  0
  2  8  1  1
  9  1  1  0
 10  8  1  0
  3 11  1  6
 12  4  2  0
 13  6  2  0
 14 10  2  0
 15  4  1  0
 16  4  1  0
 17  4  1  0
  7 18  1  6
 19  6  1  0
 20 11  1  0
 21 10  1  0
 22 19  1  0
 23 20  1  0
 24 20  1  0
 25 22  1  0
 26 24  1  0
 27 23  1  0
  2  7  1  0
M  END
> <Library>
Bioactives

> <Batch>
2012

> <PLATE>
B1002L2012M01

> <WELL>
H14

> <EOS>
EOS100668

> <CCMF_source_vial_barcode>
LV2001695366

> <concentration_mM>
10

> <volume_ul>
30

$$$$
EOS100669
  SciTegic04282016392D

 35 40  0  0  0  0            999 V2000
    7.6414    0.7145    0.0000 C   0  0
    7.2289    0.0000    0.0000 C   0  0
    6.4039    0.0000    0.0000 C   0  0
    5.9914    0.7145    0.0000 C   0  0
    6.4039    1.4290    0.0000 C   0  0
    7.2289    1.4290    0.0000 C   0  0
    5.1693    0.7145    0.0000 N   0  0
    4.7582    1.4265    0.0000 C   0  0
    3.9332    1.4265    0.0000 N   0  0
    3.5207    2.1410    0.0000 C   0  0
    3.9332    2.8554    0.0000 C   0  0
    4.7582    2.8554    0.0000 C   0  0
    5.1707    2.1410    0.0000 N   0  0
    1.4290    2.5535    0.0000 C   0  0
    1.4290    1.7285    0.0000 C   0  0
    2.2136    1.4735    0.0000 S   0  0
    2.6986    2.1410    0.0000 C   0  0
    2.2136    2.8084    0.0000 C   0  0
    0.7145    1.3160    0.0000 C   0  0
    0.0000    1.7285    0.0000 C   0  0
    0.0000    2.5535    0.0000 C   0  0
    0.7145    2.9660    0.0000 C   0  0
    8.4636    0.7145    0.0000 C   0  0
    8.8746    0.0025    0.0000 O   0  0
    8.8746    1.4265    0.0000 N   0  0
    8.4621    2.1410    0.0000 C   0  0
    8.8746    2.8554    0.0000 C   0  0
    9.6997    2.8554    0.0000 C   0  0
   10.1122    2.1410    0.0000 C   0  0
    9.6997    1.4265    0.0000 C   0  0
   10.1107    3.5675    0.0000 N   0  0
    9.7752    4.3211    0.0000 C   0  0
   10.3883    4.8732    0.0000 C   0  0
   11.1028    4.4607    0.0000 C   0  0
   10.9312    3.6537    0.0000 C   0  0
  1  2  2  0
  2  3  1  0
  3  4  2  0
  4  5  1  0
  5  6  2  0
  1  6  1  0
  8  9  2  0
  9 10  1  0
 10 11  2  0
 11 12  1  0
 12 13  2  0
  8 13  1  0
  7  8  1  0
 14 15  1  0
 15 16  1  0
 17 18  2  0
 14 18  1  0
 19 20  1  0
 20 21  2  0
 21 22  1  0
 14 22  2  0
 15 19  2  0
 10 17  1  0
  4  7  1  0
 23 24  2  0
  1 23  1  0
 25 26  1  0
 26 27  1  0
 27 28  1  0
 28 29  1  0
 29 30  1  0
 25 30  1  0
 31 32  1  0
 32 33  1  0
 33 34  1  0
 34 35  1  0
 31 35  1  0
 28 31  1  0
 17 16  1  0
 23 25  1  0
M  END
> <Library>
Bioactives

> <Batch>
2012

> <PLATE>
B1002L2012M01

> <WELL>
J14

> <EOS>
EOS100669

> <CCMF_source_vial_barcode>
LV2001695927

> <concentration_mM>
10

> <volume_ul>
30

$$$$
EOS100670
  SciTegic04282016392D

 27 30  0  0  1  0            999 V2000
    0.7145    2.0625    0.0000 O   0  0
    0.7145    1.2375    0.0000 C   0  0  2  0  0  0
    1.4289    0.8250    0.0000 C   0  0
    1.4289    0.0000    0.0000 C   0  0
    0.7145   -0.4125    0.0000 C   0  0  1  0  0  0
    0.7145   -1.2375    0.0000 N   0  0
    1.3819   -1.7224    0.0000 C   0  0
    1.1270   -2.5070    0.0000 N   0  0
    0.3020   -2.5070    0.0000 C   0  0
   -0.1830   -3.1745    0.0000 C   0  0
    0.1526   -3.9282    0.0000 C   0  0
   -0.3323   -4.5956    0.0000 C   0  0
   -1.1528   -4.5094    0.0000 C   0  0
   -1.6377   -5.1768    0.0000 F   0  0
   -1.4884   -3.7557    0.0000 C   0  0
   -1.0034   -3.0882    0.0000 C   0  0
    0.0470   -1.7224    0.0000 C   0  0
   -0.7376   -1.4675    0.0000 C   0  0
   -1.3507   -2.0195    0.0000 C   0  0
   -2.1353   -1.7646    0.0000 C   0  0
   -2.3068   -0.9576    0.0000 N   0  0
   -1.6937   -0.4056    0.0000 C   0  0
   -1.8653    0.4014    0.0000 O   0  0
   -1.2522    0.9534    0.0000 C   0  0
   -0.9091   -0.6605    0.0000 N   0  0
    0.0000    0.0000    0.0000 C   0  0
    0.0000    0.8250    0.0000 C   0  0
  2  1  1  6
  2  3  1  0
  3  4  1  0
  5  4  1  0
  5  6  1  1
  6  7  1  0
  7  8  2  0
  8  9  1  0
  9 10  1  0
 10 11  2  0
 11 12  1  0
 12 13  2  0
 13 14  1  0
 13 15  1  0
 15 16  2  0
 10 16  1  0
  9 17  2  0
  6 17  1  0
 17 18  1  0
 18 19  2  0
 19 20  1  0
 20 21  2  0
 21 22  1  0
 22 23  1  0
 23 24  1  0
 22 25  2  0
 18 25  1  0
  5 26  1  0
 26 27  1  0
  2 27  1  0
M  END
> <Library>
Bioactives

> <Batch>
2012

> <PLATE>
B1002L2012M01

> <WELL>
L14

> <EOS>
EOS100670

> <CCMF_source_vial_barcode>
LV2001696557

> <concentration_mM>
10

> <volume_ul>
30

$$$$
EOS100671
  SciTegic04282016392D

 30 31  0  0  0  0            999 V2000
   19.6553  -19.1482    0.0000 C   0  0
   18.9408  -19.5607    0.0000 C   0  0
   19.6553  -18.3232    0.0000 O   0  0
   20.3698  -19.5607    0.0000 O   0  0
   18.2264  -19.1482    0.0000 N   0  0
   17.5119  -19.5607    0.0000 C   0  0
   16.7974  -19.1482    0.0000 C   0  0
   16.0829  -19.5607    0.0000 C   0  0
   15.3685  -19.1482    0.0000 C   0  0
   15.3685  -18.3232    0.0000 C   0  0
   16.0829  -17.9107    0.0000 C   0  0
   16.7974  -18.3232    0.0000 C   0  0
   17.5119  -20.3857    0.0000 O   0  0
   16.0829  -20.3857    0.0000 N   0  0
   15.3685  -20.7982    0.0000 S   0  0
   14.9560  -20.0837    0.0000 O   0  0
   15.7810  -21.5127    0.0000 O   0  0
   14.6540  -21.2107    0.0000 C   0  0
   14.6540  -22.0357    0.0000 C   0  0
   13.9396  -22.4482    0.0000 C   0  0
   13.2251  -22.0357    0.0000 C   0  0
   13.2251  -21.2107    0.0000 C   0  0
   13.9396  -20.7982    0.0000 C   0  0
   12.5106  -22.4482    0.0000 O   0  0
   11.7961  -22.0357    0.0000 C   0  0
   11.0817  -22.4482    0.0000 C   0  0
   11.0817  -23.2732    0.0000 C   0  0
   11.7961  -21.2107    0.0000 O   0  0
   10.3672  -22.8607    0.0000 C   0  0
   10.3672  -22.0357    0.0000 C   0  0
  1  2  1  0
  1  3  2  0
  1  4  1  0
  6  7  1  0
  7  8  2  0
  8  9  1  0
  9 10  2  0
 10 11  1  0
 11 12  2  0
  7 12  1  0
  6 13  2  0
 15 16  2  0
 15 17  2  0
 18 19  2  0
 19 20  1  0
 20 21  2  0
 21 22  1  0
 22 23  2  0
 18 23  1  0
 25 26  1  0
 26 27  1  0
 25 28  2  0
 24 25  1  0
 26 29  1  0
 26 30  1  0
 21 24  1  0
 15 18  1  0
 14 15  1  0
  8 14  1  0
  5  6  1  0
  2  5  1  0
M  END
> <Library>
Bioactives

> <Batch>
2012

> <PLATE>
B1002L2012M01

> <WELL>
N14

> <EOS>
EOS100671

> <CCMF_source_vial_barcode>
LV2001696560

> <concentration_mM>
10

> <volume_ul>
30

$$$$
EOS100672
  SciTegic04282016392D

 12 12  0  0  0  0            999 V2000
   -0.0936    0.4724    0.0000 N   0  0
   -0.8080    0.8849    0.0000 C   0  0
   -0.8080    1.7099    0.0000 C   0  0
    0.6208    1.7099    0.0000 C   0  0
    0.6159    0.8849    0.0000 C   0  0
    1.3297    0.4713    0.0000 O   0  0
   -0.0923   -0.3525    0.0000 C   0  0
    0.6227   -0.7639    0.0000 C   0  0
   -0.8062   -0.7661    0.0000 C   0  0
   -1.5212   -0.3546    0.0000 C   0  0
    1.3366   -0.3503    0.0000 N   0  0
    0.6240   -1.5889    0.0000 O   0  0
  1  2  1  0
  1  5  1  0
  1  7  1  0
  2  3  1  0
  3  4  1  0
  4  5  1  0
  5  6  2  0
  7  8  1  0
  7  9  1  0
  8 11  1  0
  8 12  2  0
  9 10  1  0
M  END
> <Library>
Bioactives

> <Batch>
2012

> <PLATE>
B1002L2012M01

> <WELL>
P14

> <EOS>
EOS100672

> <CCMF_source_vial_barcode>
LV2001696004

> <concentration_mM>
10

> <volume_ul>
30

$$$$
EOS100673
  SciTegic04282016392D

 27 28  0  0  0  0            999 V2000
   -0.0603    3.5751    0.0000 O   0  0
   -0.0602    2.7502    0.0000 C   0  0
    0.6543    2.3378    0.0000 C   0  0
    1.3688    2.7503    0.0000 C   0  0
    2.0833    2.3378    0.0000 C   0  0
    2.7977    2.7502    0.0000 C   0  0
    3.5122    2.3377    0.0000 C   0  0
    3.5122    1.5128    0.0000 C   0  0
    2.7977    1.1003    0.0000 C   0  0
    2.0833    1.5128    0.0000 C   0  0
    2.7977    0.2752    0.0000 O   0  0
    2.0833   -0.1373    0.0000 C   0  0
    4.2267    1.1003    0.0000 O   0  0
   -0.7745    2.3376    0.0000 C   0  0
   -1.4891    2.7499    0.0000 C   0  0
   -1.4892    3.5749    0.0000 O   0  0
   -2.2035    2.3373    0.0000 C   0  0
   -2.9181    2.7496    0.0000 C   0  0
   -3.6323    2.3368    0.0000 C   0  0
   -3.6319    1.5118    0.0000 C   0  0
   -4.3464    1.0991    0.0000 C   0  0
   -5.0610    1.5112    0.0000 C   0  0
   -5.0613    2.3362    0.0000 C   0  0
   -4.3469    2.7489    0.0000 C   0  0
   -5.7752    1.0985    0.0000 O   0  0
   -4.3462    0.2741    0.0000 O   0  0
   -5.0606   -0.1385    0.0000 C   0  0
  1  2  2  0
  2  3  1  0
  3  4  2  0
  4  5  1  0
  5  6  2  0
  6  7  1  0
  7  8  2  0
  8  9  1  0
  9 10  2  0
 10  5  1  0
  9 11  1  0
 11 12  1  0
  8 13  1  0
  2 14  1  0
 14 15  1  0
 15 16  2  0
 15 17  1  0
 17 18  2  0
 18 19  1  0
 19 20  2  0
 20 21  1  0
 21 22  2  0
 22 23  1  0
 23 24  2  0
 24 19  1  0
 22 25  1  0
 21 26  1  0
 26 27  1  0
M  END
> <Library>
Bioactives

> <Batch>
2012

> <PLATE>
B1002L2012M01

> <WELL>
B16

> <EOS>
EOS100673

> <CCMF_source_vial_barcode>
LV2001696042

> <concentration_mM>
10

> <volume_ul>
30

$$$$
EOS100674
  SciTegic04282016392D

 34 38  0  0  0  0            999 V2000
   -0.3572    1.6576    0.0000 C   0  0
   -0.2851    0.8390    0.0000 C   0  0
    0.4620    0.4915    0.0000 C   0  0
    1.1365    0.9637    0.0000 C   0  0
    1.0652    1.7885    0.0000 C   0  0
    0.3179    2.1358    0.0000 C   0  0
    1.8246    0.5112    0.0000 C   0  0
    2.6114    0.7670    0.0000 N   0  0
    2.8997    1.5396    0.0000 C   0  0
    2.4737    2.2476    0.0000 C   0  0
    1.6608    2.3589    0.0000 O   0  0
    1.8246   -0.3146    0.0000 N   0  0
    2.6114   -0.5702    0.0000 C   0  0
    3.0963    0.0983    0.0000 C   0  0
    2.8671   -1.3494    0.0000 C   0  0
    2.3818   -2.0179    0.0000 N   0  0
    2.8671   -2.6867    0.0000 N   0  0
    3.6462   -2.4310    0.0000 C   0  0
    3.6462   -1.6051    0.0000 N   0  0
    4.3146   -2.9161    0.0000 C   0  0
    1.5558   -2.0179    0.0000 C   0  0
    1.1429   -1.3036    0.0000 C   0  0
    1.1429   -2.7326    0.0000 C   0  0
   -1.1037    2.0048    0.0000 C   0  0
   -1.2676    2.8178    0.0000 C   0  0
   -2.0866    2.9161    0.0000 N   0  0
   -2.4344    2.1621    0.0000 N   0  0
   -1.8246    1.6051    0.0000 C   0  0
   -3.2397    2.0048    0.0000 C   0  0
   -3.5083    1.2250    0.0000 C   0  0
   -2.9652    0.6028    0.0000 O   0  0
   -4.3146    1.0679    0.0000 N   0  0
   -4.0197    2.2737    0.0000 C   0  0
   -3.3969    2.8178    0.0000 C   0  0
  1  2  2  0
  2  3  1  0
  3  4  2  0
  4  5  1  0
  5  6  2  0
  6  1  1  0
  4  7  1  0
  7  8  1  0
  8  9  1  0
  9 10  1  0
 10 11  1  0
 11  5  1  0
  7 12  2  0
 12 13  1  0
 13 14  2  0
 14  8  1  0
 13 15  1  0
 15 16  1  0
 16 17  1  0
 17 18  2  0
 18 19  1  0
 19 15  2  0
 18 20  1  0
 16 21  1  0
 21 22  1  0
 21 23  1  0
  1 24  1  0
 24 25  1  0
 25 26  2  0
 26 27  1  0
 27 28  1  0
 28 24  2  0
 27 29  1  0
 29 30  1  0
 30 31  2  0
 30 32  1  0
 29 33  1  0
 29 34  1  0
M  END
> <Library>
Bioactives

> <Batch>
2012

> <PLATE>
B1002L2012M01

> <WELL>
D16

> <EOS>
EOS100674

> <CCMF_source_vial_barcode>
LV2001695426

> <concentration_mM>
10

> <volume_ul>
30

$$$$
EOS100675
  SciTegic04282016392D

 23 24  0  0  1  0            999 V2000
   -2.0940    1.1768    0.0000 C   0  0
   -2.0940    0.3518    0.0000 C   0  0
   -1.3569    1.5914    0.0000 C   0  0
   -0.6659    1.1768    0.0000 C   0  0
   -0.6659    0.3518    0.0000 C   0  0
   -1.3569   -0.0545    0.0000 C   0  0
   -2.8604    1.4197    0.0000 C   0  0
   -3.3378    0.7538    0.0000 O   0  0
   -2.8604    0.0963    0.0000 C   0  0
    0.0796    1.6040    0.0000 C   0  0
    0.7832    1.1768    0.0000 C   0  0
    3.6352    1.1768    0.0000 C   0  0
   -3.1159    2.2070    0.0000 O   0  0
    1.5077    1.5788    0.0000 C   0  0
    3.6352    0.3518    0.0000 O   0  0
   -1.3569    2.4123    0.0000 O   0  0
    0.0545   -0.0879    0.0000 O   0  0
    2.9148    1.5788    0.0000 C   0  0
    2.2029    1.1559    0.0000 C   0  0
    4.3388    1.6040    0.0000 O   0  0
   -1.3569   -0.8837    0.0000 C   0  0
    1.5077    2.4081    0.0000 C   0  0
    0.7832    0.3141    0.0000 C   0  0
  2  1  2  0
  3  1  1  0
  4  3  2  0
  5  4  1  0
  6  2  1  0
  7  1  1  0
  8  7  1  0
  9  2  1  0
 10  4  1  0
 11 10  1  0
 12 18  1  0
 13  7  2  0
 14 11  2  0
 15 12  2  0
 16  3  1  0
 17  5  1  0
 18 19  1  0
 19 14  1  0
 20 12  1  0
 21  6  1  0
 22 14  1  0
 23 17  1  0
  9  8  1  0
  5  6  2  0
M  END
> <Library>
Bioactives

> <Batch>
2012

> <PLATE>
B1002L2012M01

> <WELL>
F16

> <EOS>
EOS100675

> <CCMF_source_vial_barcode>
LV2001695416

> <concentration_mM>
10

> <volume_ul>
30

$$$$
EOS100676
  SciTegic04282016392D

 28 31  0  0  0  0            999 V2000
    1.3603   -2.2391    0.0000 C   0  0
    1.3603   -1.4188    0.0000 C   0  0  1  0  0  0
    3.5198   -0.1506    0.0000 C   0  0  2  0  0  0
    4.3109    0.0836    0.0000 C   0  0  1  0  0  0
    2.7916   -1.4188    0.0000 C   0  0  2  0  0  0
    2.0759   -2.6492    0.0000 C   0  0
    2.7916   -2.2391    0.0000 C   0  0
    2.0759   -0.9919    0.0000 C   0  0  2  0  0  0
    3.5198   -0.9919    0.0000 C   0  0  2  0  0  0
    0.6320   -2.6492    0.0000 C   0  0
    2.7916    0.2511    0.0000 C   0  0
    4.7711   -0.5567    0.0000 C   0  0
    5.2902    0.0836    0.0000 O   0  0
    2.0759   -0.1506    0.0000 C   0  0
    4.3109   -1.2305    0.0000 C   0  0
    0.6320   -0.9919    0.0000 C   0  0
    4.5996    0.8872    0.0000 C   0  0
    5.8049   -0.5274    0.0000 C   0  0
   -0.0836   -2.2391    0.0000 C   0  0
    6.6419   -0.5274    0.0000 O   0  0
    4.0973    1.5276    0.0000 O   0  0
    2.0759   -3.4822    0.0000 Cl  0  0
   -0.8370   -2.6492    0.0000 O   0  0
   -0.0836   -1.4188    0.0000 C   0  0
    1.3351   -0.5817    0.0000 C   0  0
    3.5198    0.6613    0.0000 C   0  0
    5.5287   -1.2849    0.0000 C   0  0
    5.3989    1.0296    0.0000 C   0  0
  2  1  1  0
  3  9  1  0
  3  4  1  0
  5  7  1  6
  6  1  1  0
  7  6  2  0
  8  2  1  0
  9  5  1  0
 10  1  2  0
 11 14  1  0
 12 15  1  0
  4 13  1  6
  8 14  1  1
  9 15  1  1
  2 16  1  0
  4 17  1  1
 18 13  1  0
 19 10  1  0
 20 18  2  0
 21 17  2  0
 22  6  1  0
 23 19  2  0
 24 19  1  0
  2 25  1  1
  3 26  1  1
 27 18  1  0
 28 17  1  0
  5  8  1  0
 24 16  1  0
  3 11  1  0
  4 12  1  0
M  END
> <Library>
Bioactives

> <Batch>
2012

> <PLATE>
B1002L2012M01

> <WELL>
H16

> <EOS>
EOS100676

> <CCMF_source_vial_barcode>
LV2001695410

> <concentration_mM>
10

> <volume_ul>
30

$$$$
EOS100677
  SciTegic04282016392D

 21 22  0  0  0  0            999 V2000
    3.8497  -17.6741    0.0000 C   0  0
    3.1357  -18.0874    0.0000 C   0  0
    0.2756  -18.0916    0.0000 C   0  0
    2.4217  -17.6783    0.0000 C   0  0
    0.2756  -18.9183    0.0000 C   0  0
    0.9895  -17.6783    0.0000 C   0  0
    3.8455  -16.8473    0.0000 O   0  0
    1.7077  -18.0916    0.0000 C   0  0
    0.9895  -19.3317    0.0000 C   0  0
    4.5636  -18.0791    0.0000 O   0  0
   -0.4384  -17.6783    0.0000 O   0  0
    1.7077  -18.9183    0.0000 C   0  0
   -0.4467  -19.3317    0.0000 O   0  0
    5.2776  -17.6657    0.0000 C   0  0
    6.7056  -17.6657    0.0000 C   0  0
    5.9916  -18.0791    0.0000 C   0  0
    7.4195  -18.0791    0.0000 C   0  0
    6.7014  -16.8390    0.0000 C   0  0
    7.4070  -16.4257    0.0000 C   0  0
    8.1335  -17.6657    0.0000 C   0  0
    8.1293  -16.8390    0.0000 C   0  0
  2  1  1  0
  3  6  2  0
  4  2  2  0
  5  9  2  0
  6  8  1  0
  7  1  2  0
  8  4  1  0
  9 12  1  0
 10  1  1  0
 11  3  1  0
 12  8  2  0
 13  5  1  0
 14 10  1  0
 15 16  1  0
 16 14  1  0
 17 15  2  0
 18 15  1  0
 19 18  2  0
 20 17  1  0
 21 19  1  0
  5  3  1  0
 21 20  2  0
M  END
> <Library>
Bioactives

> <Batch>
2012

> <PLATE>
B1002L2012M01

> <WELL>
J16

> <EOS>
EOS100677

> <CCMF_source_vial_barcode>
LV2001696623

> <concentration_mM>
10

> <volume_ul>
30

$$$$
EOS100678
  SciTegic04282016392D

 27 29  0  0  0  0            999 V2000
    4.4717    0.3257    0.0000 N   0  0
    3.9206   -0.2881    0.0000 N   0  0
    4.0584    1.0480    0.0000 C   0  0
    3.1607    0.0459    0.0000 C   0  0
    3.2484    0.8726    0.0000 C   0  0
    4.6221   -3.5198    0.0000 S   0  0
    2.4468   -0.3675    0.0000 C   0  0
    4.4467   -2.7098    0.0000 C   0  0
    4.0960   -1.0940    0.0000 C   0  0
    4.3883    1.7995    0.0000 C   0  0
    1.7328    0.0459    0.0000 C   0  0
    1.0188   -0.3758    0.0000 C   0  0
    3.7996   -3.7828    0.0000 O   0  0
    5.3653   -3.2818    0.0000 O   0  0
    4.8350   -4.3131    0.0000 N   0  0
    1.0188   -1.2025    0.0000 C   0  0
    2.4468   -1.2025    0.0000 C   0  0
    5.0605   -2.1461    0.0000 C   0  0
    3.6576   -2.4593    0.0000 C   0  0
    4.8768   -1.3445    0.0000 C   0  0
    3.4822   -1.6451    0.0000 C   0  0
    1.7328   -1.6158    0.0000 C   0  0
    0.3048    0.0376    0.0000 F   0  0
    3.8998    2.4634    0.0000 F   0  0
    5.2108    1.8872    0.0000 F   0  0
    0.3048   -1.6158    0.0000 O   0  0
   -0.4091   -1.2025    0.0000 C   0  0
  2  1  1  0
  3  1  2  0
  4  2  1  0
  5  3  1  0
  6  8  1  0
  7  4  1  0
  8 19  2  0
  9  2  1  0
 10  3  1  0
 11  7  2  0
 12 11  1  0
 13  6  2  0
 14  6  2  0
 15  6  1  0
 16 22  1  0
 17  7  1  0
 18 20  2  0
 19 21  1  0
 20  9  1  0
 21  9  2  0
 22 17  2  0
 23 12  1  0
 24 10  1  0
 25 10  1  0
 26 16  1  0
 27 26  1  0
  4  5  2  0
 18  8  1  0
 16 12  2  0
M  END
> <Library>
Bioactives

> <Batch>
2012

> <PLATE>
B1002L2012M01

> <WELL>
L16

> <EOS>
EOS100678

> <CCMF_source_vial_barcode>
LV2001696072

> <concentration_mM>
10

> <volume_ul>
30

$$$$
EOS100679
  SciTegic04282016392D

 48 52  0  0  0  0            999 V2000
   -2.8579   -4.9500    0.0000 C   0  0
   -2.1434   -5.3625    0.0000 C   0  0
   -2.1434   -6.1875    0.0000 C   0  0
   -1.4289   -6.6000    0.0000 N   0  0
   -1.4289   -7.4250    0.0000 C   0  0
   -0.7145   -7.8375    0.0000 C   0  0
   -0.7145   -8.6625    0.0000 C   0  0
   -2.1434   -7.8375    0.0000 C   0  0
   -2.1434   -8.6625    0.0000 C   0  0
   -1.4289   -9.0750    0.0000 C   0  0
   -1.4289   -9.9000    0.0000 C   0  0
   -2.1434  -10.3125    0.0000 N   0  0
   -2.8579   -9.9000    0.0000 C   0  0
   -3.5724  -10.3125    0.0000 N   0  0
   -4.2868   -9.9000    0.0000 C   0  0
   -5.0013  -10.3125    0.0000 C   0  0
   -5.0013  -11.1375    0.0000 Cl  0  0
   -5.7158   -9.9000    0.0000 C   0  0
   -6.4302  -10.3125    0.0000 O   0  0
   -7.1447   -9.9000    0.0000 C   0  0
   -5.7158   -9.0750    0.0000 C   0  0
   -5.0013   -8.6625    0.0000 C   0  0
   -5.0013   -7.8375    0.0000 O   0  0
   -4.2868   -7.4250    0.0000 C   0  0
   -4.2868   -9.0750    0.0000 C   0  0
   -3.5724   -8.6625    0.0000 Cl  0  0
   -2.8579   -9.0750    0.0000 O   0  0
   -2.1434  -11.1375    0.0000 C   0  0
   -1.4289  -11.5500    0.0000 N   0  0
   -1.4289  -12.3750    0.0000 C   0  0
   -2.1434  -12.7875    0.0000 N   0  0
   -2.8579  -12.3750    0.0000 C   0  0
   -3.5724  -12.7875    0.0000 N   0  0
   -3.5724  -13.6125    0.0000 C   0  0
   -2.8579  -14.0250    0.0000 C   0  0
   -2.8579  -14.8500    0.0000 C   0  0
   -3.5724  -15.2625    0.0000 C   0  0
   -3.5724  -16.0875    0.0000 N   0  0
   -2.8579  -16.5000    0.0000 C   0  0
   -2.8579  -17.3250    0.0000 C   0  0
   -3.5724  -17.7375    0.0000 N   0  0
   -3.5724  -18.5625    0.0000 C   0  0
   -4.2868  -17.3250    0.0000 C   0  0
   -4.2868  -16.5000    0.0000 C   0  0
   -4.2868  -14.8500    0.0000 C   0  0
   -4.2868  -14.0250    0.0000 C   0  0
   -2.8579  -11.5500    0.0000 C   0  0
   -2.8579   -6.6000    0.0000 O   0  0
  1  2  2  0
  2  3  1  0
  3  4  1  0
  4  5  1  0
  5  6  2  0
  6  7  1  0
  5  8  1  0
  8  9  2  0
  9 10  1  0
  7 10  2  0
 10 11  1  0
 11 12  1  0
 12 13  1  0
 13 14  1  0
 14 15  1  0
 15 16  2  0
 16 17  1  0
 16 18  1  0
 18 19  1  0
 19 20  1  0
 18 21  2  0
 21 22  1  0
 22 23  1  0
 23 24  1  0
 22 25  2  0
 15 25  1  0
 25 26  1  0
 13 27  2  0
 12 28  1  0
 28 29  2  0
 29 30  1  0
 30 31  2  0
 31 32  1  0
 32 33  1  0
 33 34  1  0
 34 35  2  0
 35 36  1  0
 36 37  2  0
 37 38  1  0
 38 39  1  0
 39 40  1  0
 40 41  1  0
 41 42  1  0
 41 43  1  0
 43 44  1  0
 38 44  1  0
 37 45  1  0
 45 46  2  0
 34 46  1  0
 32 47  2  0
 28 47  1  0
  3 48  2  0
M  END
> <Library>
Bioactives

> <Batch>
2012

> <PLATE>
B1002L2012M01

> <WELL>
N16

> <EOS>
EOS100679

> <CCMF_source_vial_barcode>
LV2001696053

> <concentration_mM>
10

> <volume_ul>
30

$$$$
EOS100680
  SciTegic04282016392D

 27 29  0  0  0  0            999 V2000
    2.4115    4.0059    0.0000 F   0  0
    3.7464    4.9757    0.0000 F   0  0
    2.5941    5.1583    0.0000 F   0  0
    3.9764   -0.7462    0.0000 O   0  0
    3.2149   -3.7062    0.0000 O   0  0
    4.3889    3.8233    0.0000 O   0  0
    2.9600   -4.4908    0.0000 N   0  0
    3.3089    3.0387    0.0000 N   0  0
    4.6439    3.0387    0.0000 N   0  0
    3.2619   -1.9837    0.0000 C   0  0
    2.5474   -2.3962    0.0000 C   0  0
    3.2619   -1.1587    0.0000 C   0  0
    3.9764    0.0788    0.0000 C   0  0
    4.6909    0.4913    0.0000 C   0  0
    3.2619    0.4913    0.0000 C   0  0
    3.9764    1.7288    0.0000 C   0  0
    4.6909    1.3163    0.0000 C   0  0
    3.2619    1.3163    0.0000 C   0  0
    2.5474   -3.2212    0.0000 C   0  0
    5.4053    0.0788    0.0000 C   0  0
    2.5474    0.0788    0.0000 C   0  0
    1.8800   -3.7062    0.0000 C   0  0
    3.9764    2.5538    0.0000 C   0  0
    2.1349   -4.4908    0.0000 C   0  0
    1.6500   -5.1583    0.0000 C   0  0
    3.5639    3.8233    0.0000 C   0  0
    3.0790    4.4908    0.0000 C   0  0
  1 27  1  0
  2 27  1  0
  3 27  1  0
  4 12  1  0
  4 13  1  0
  5  7  1  0
  5 19  1  0
  6  9  1  0
  6 26  1  0
  7 24  2  0
  8 23  1  0
  8 26  2  0
  9 23  2  0
 10 11  1  0
 10 12  1  0
 11 19  1  0
 13 14  2  0
 13 15  1  0
 14 17  1  0
 14 20  1  0
 15 18  2  0
 15 21  1  0
 16 17  2  0
 16 18  1  0
 16 23  1  0
 19 22  2  0
 22 24  1  0
 24 25  1  0
 26 27  1  0
M  END
> <Library>
Bioactives

> <Batch>
2012

> <PLATE>
B1002L2012M01

> <WELL>
P16

> <EOS>
EOS100680

> <CCMF_source_vial_barcode>
LV2001695396

> <concentration_mM>
10

> <volume_ul>
30

$$$$
EOS100681
  SciTegic04282016392D

 30 34  0  0  1  0            999 V2000
    4.1382   -0.8209    0.0000 C   0  0  1  0  0  0
    4.8050   -0.3334    0.0000 C   0  0
    5.4759   -0.8126    0.0000 C   0  0  2  0  0  0
    5.2217   -1.6003    0.0000 N   0  0
    4.3965   -1.6045    0.0000 C   0  0
    6.1843   -0.4001    0.0000 C   0  0
    6.8969   -0.8126    0.0000 O   0  0
    6.1843    0.4251    0.0000 N   0  0
    6.8511    0.9084    0.0000 C   0  0
    6.5969    1.6920    0.0000 S   0  0
    5.7717    1.6920    0.0000 C   0  0
    5.5176    0.9084    0.0000 C   0  0
   -0.1000   -1.7336    0.0000 C   0  0
   -0.1000   -0.9084    0.0000 C   0  0
    0.6084   -0.5001    0.0000 C   0  0
    1.3210   -0.9084    0.0000 C   0  0
    1.3210   -1.7336    0.0000 C   0  0
    0.6084   -2.1504    0.0000 C   0  0
    0.6084    0.3209    0.0000 N   0  0
   -0.0583    0.8043    0.0000 N   0  0
    0.1958    1.5920    0.0000 C   0  0
    1.0210    1.5920    0.0000 C   0  0
    1.2752    0.8084    0.0000 C   0  0
    1.9878    0.4043    0.0000 N   0  0
    2.7004    0.8209    0.0000 C   0  0
    3.4173    0.4126    0.0000 C   0  0
    3.4214   -0.4126    0.0000 N   0  0
    2.7129   -0.8293    0.0000 C   0  0
    1.9878   -0.4209    0.0000 C   0  0
   -0.2917    2.2587    0.0000 C   0  0
  3  2  1  0
  6  8  1  0
  8  9  1  0
 13 18  2  0
 14 15  2  0
 15 16  1  0
 16 17  2  0
 17 18  1  0
 19 20  1  0
  3  4  1  0
  4  5  1  0
  1  5  1  0
  1  2  1  0
  9 10  1  0
 20 21  2  0
 21 22  1  0
 22 23  2  0
 23 19  1  0
 15 19  1  0
 24 25  1  0
 10 11  1  0
 11 12  1  0
 12  8  1  0
 13 14  1  0
  3  6  1  1
 24 29  1  0
 25 26  1  0
 26 27  1  0
 27 28  1  0
 28 29  1  0
 23 24  1  0
  6  7  2  0
 21 30  1  0
  1 27  1  1
M  END
> <Library>
Bioactives

> <Batch>
2012

> <PLATE>
B1002L2012M01

> <WELL>
B18

> <EOS>
EOS100681

> <CCMF_source_vial_barcode>
LV2001696039

> <concentration_mM>
10

> <volume_ul>
30

$$$$
EOS100682
  SciTegic04282016392D

 29 31  0  0  0  0            999 V2000
    1.4401   -0.7412    0.0000 C   0  0
    0.7306   -1.1542    0.0000 N   0  0
    2.2448   -0.9847    0.0000 N   0  0
    1.4401    0.0847    0.0000 C   0  0
    0.0212   -0.7412    0.0000 C   0  0
    0.0212    0.0847    0.0000 N   0  0
    2.2448    0.3282    0.0000 N   0  0
    0.7306    0.4977    0.0000 C   0  0
    2.7001   -0.3282    0.0000 C   0  0
    0.7306    1.3130    0.0000 N   0  0
   -0.6883   -1.1542    0.0000 N   0  0
    2.5201   -1.7577    0.0000 C   0  0
    0.0212    1.7260    0.0000 C   0  0
   -0.6883    1.3130    0.0000 C   0  0
   -2.1283    0.4765    0.0000 C   0  0
   -0.6883    0.4765    0.0000 C   0  0
   -1.4083    1.7260    0.0000 C   0  0
   -1.4083    0.0635    0.0000 C   0  0
   -2.1283    1.3130    0.0000 C   0  0
   -2.8378    0.0741    0.0000 O   0  0
   -2.8166   -0.7412    0.0000 O   0  0
   -2.0860   -1.9801    0.0000 O   0  0
   -0.6883   -1.9695    0.0000 C   0  0
   -1.3977   -0.7518    0.0000 C   0  0
    3.3354   -1.8848    0.0000 C   0  0
    2.0013   -2.3825    0.0000 C   0  0
   -1.3871   -2.3825    0.0000 C   0  0
   -2.1177   -1.1542    0.0000 C   0  0
   -3.5472    0.4871    0.0000 C   0  0
  2  1  2  0
  3  1  1  0
  4  1  1  0
  5  2  1  0
  6  5  2  0
  7  4  1  0
  8  4  2  0
  9  3  1  0
 10  8  1  0
 11  5  1  0
 12  3  1  0
 13 10  1  0
 14 13  1  0
 15 18  2  0
 16 14  2  0
 17 14  1  0
 18 16  1  0
 19 17  2  0
 20 15  1  0
 21 28  1  0
 22 27  1  0
 23 11  1  0
 24 11  1  0
 25 12  1  0
 26 12  1  0
 27 23  1  0
 28 24  1  0
 29 20  1  0
  8  6  1  0
  9  7  2  0
 15 19  1  0
M  END
> <Library>
Bioactives

> <Batch>
2012

> <PLATE>
B1002L2012M01

> <WELL>
D18

> <EOS>
EOS100682

> <CCMF_source_vial_barcode>
LV2001695453

> <concentration_mM>
10

> <volume_ul>
30

$$$$
EOS100683
  SciTegic04282016392D

 36 39  0  0  0  0            999 V2000
    2.8870    1.7050    0.0000 C   0  0  2  0  0  0
    2.8870    2.5300    0.0000 C   0  0  2  0  0  0
    5.1144    2.8600    0.0000 C   0  0  2  0  0  0
    4.3444    2.5575    0.0000 C   0  0  2  0  0  0
    2.1994    1.2650    0.0000 C   0  0  2  0  0  0
    4.3444    1.7600    0.0000 C   0  0  2  0  0  0
    3.6294    1.3200    0.0000 C   0  0  2  0  0  0
    2.1994    0.4400    0.0000 C   0  0
    3.6019    2.9700    0.0000 C   0  0
    5.6369    2.2275    0.0000 C   0  0  2  0  0  0
    1.4569    1.6775    0.0000 C   0  0
    5.1419    1.5125    0.0000 C   0  0
    5.1419    3.7400    0.0000 C   0  0
    1.4845    0.0000    0.0000 C   0  0
    5.9394    2.8600    0.0000 O   0  0
    3.6294    0.4813    0.0000 C   0  0
    0.7144    1.2375    0.0000 C   0  0
    0.7144    0.4125    0.0000 C   0  0
    2.9695    0.0550    0.0000 C   0  0
    2.8870    0.8800    0.0000 Cl  0  0
    5.8564    4.1525    0.0000 O   0  0
    0.0000    0.0000    0.0000 O   0  0
    4.3444    3.3825    0.0000 C   0  0
    2.1725    2.9425    0.0000 O   0  0
    2.1994    2.0900    0.0000 C   0  0
    6.4069    2.3925    0.0000 C   0  0
    6.6539    3.2725    0.0000 C   0  0
    7.3684    2.8600    0.0000 C   0  0
    6.6539    4.0974    0.0000 O   0  0
    8.0828    3.2725    0.0000 C   0  0
    4.4509    4.1907    0.0000 C   0  0
    3.7151    3.8177    0.0000 O   0  0
    3.0241    4.2683    0.0000 C   0  0
    2.2883    3.8952    0.0000 C   0  0
    3.0241    5.0933    0.0000 O   0  0
    1.5973    4.3460    0.0000 C   0  0
  1  2  1  0
  4  3  1  0
  1  5  1  0
  6  4  1  0
  7  6  1  0
  5  8  1  0
  2  9  1  0
  4  9  1  0
  3 10  1  0
  5 11  1  0
  6 12  1  1
  3 13  1  0
  8 14  2  0
  3 15  1  6
  7 16  1  6
 11 17  2  0
 17 18  1  0
 16 19  1  0
  1 20  1  6
 13 21  2  0
 18 22  2  0
  4 23  1  1
  2 24  1  1
  5 25  1  1
 10 26  1  1
 10 12  1  0
  1  7  1  0
  8 19  1  0
 14 18  1  0
 15 27  1  0
 27 28  1  0
 27 29  2  0
 28 30  1  0
 13 31  1  0
 31 32  1  0
 32 33  1  0
 33 34  1  0
 33 35  2  0
 34 36  1  0
M  END
> <Library>
Bioactives

> <Batch>
2012

> <PLATE>
B1002L2012M01

> <WELL>
F18

> <EOS>
EOS100683

> <CCMF_source_vial_barcode>
LV2001696647

> <concentration_mM>
10

> <volume_ul>
30

$$$$
EOS100684
  SciTegic04282016392D

 16 18  0  0  0  0            999 V2000
    0.7092   -0.3580    0.0000 C   0  0
    0.4545    0.4132    0.0000 C   0  0
    0.0482   -0.8504    0.0000 O   0  0
   -0.3753    0.4132    0.0000 C   0  0
   -0.6232   -0.3684    0.0000 C   0  0
    1.4839   -0.6576    0.0000 C   0  0
    2.1863   -0.2307    0.0000 N   0  0
   -0.9261    1.0260    0.0000 C   0  0
    1.5528   -1.4839    0.0000 O   0  0
   -1.4254   -0.5440    0.0000 C   0  0
   -1.7387    0.8538    0.0000 C   0  0
    0.9124    1.1052    0.0000 C   0  0
   -1.9866    0.0723    0.0000 C   0  0
   -2.3068    1.4874    0.0000 O   0  0
    2.3033    0.5784    0.0000 C   0  0
    1.7353    1.1740    0.0000 C   0  0
  2  1  2  0
  3  1  1  0
  4  2  1  0
  5  3  1  0
  6  1  1  0
  7  6  1  0
  8  4  2  0
  9  6  2  0
 10  5  2  0
 11  8  1  0
 12  2  1  0
 13 10  1  0
 14 11  1  0
 15  7  1  0
 16 12  1  0
  4  5  1  0
 15 16  1  0
 11 13  2  0
M  END
> <Library>
Bioactives

> <Batch>
2012

> <PLATE>
B1002L2012M01

> <WELL>
H18

> <EOS>
EOS100684

> <CCMF_source_vial_barcode>
LV2001696551

> <concentration_mM>
10

> <volume_ul>
30

$$$$
EOS100685
  SciTegic04282016392D

 14 13  0  0  0  0            999 V2000
    3.7113   -0.2249    0.0000 C   0  0
    3.7113    0.6051    0.0000 O   0  0
    4.4289   -0.6373    0.0000 O   0  0
    2.9937   -0.6320    0.0000 C   0  0
    2.2707   -0.2249    0.0000 C   0  0
   -3.4649   -0.2249    0.0000 C   0  0
   -2.7473   -0.6320    0.0000 C   0  0
    1.5584   -0.6320    0.0000 C   0  0
   -2.0350   -0.2249    0.0000 C   0  0
   -1.3120   -0.6320    0.0000 C   0  0
   -0.5945   -0.2249    0.0000 C   0  0
    0.1179   -0.6320    0.0000 C   0  0
    0.8408   -0.2249    0.0000 C   0  0
   -4.1879   -0.6320    0.0000 C   0  0
  2  1  2  0
  3  1  1  0
  4  1  1  0
  5  4  1  0
  6  7  1  0
  7  9  1  0
  8  5  1  0
  9 10  1  0
 10 11  1  0
 11 12  1  0
 12 13  1  0
 13  8  1  0
 14  6  1  0
M  END
> <Library>
Bioactives

> <Batch>
2012

> <PLATE>
B1002L2012M01

> <WELL>
J18

> <EOS>
EOS100685

> <CCMF_source_vial_barcode>
LV2001695428

> <concentration_mM>
10

> <volume_ul>
30

$$$$
EOS100686
  SciTegic04282016392D

 32 36  0  0  0  0            999 V2000
    3.5724    3.7125    0.0000 N   0  0
    2.8579    3.3000    0.0000 C   0  0
    2.1434    3.7125    0.0000 C   0  0
    2.1434    4.5375    0.0000 C   0  0
    2.1434    5.3625    0.0000 N   0  0
    1.4289    3.3000    0.0000 C   0  0
    0.7145    3.7125    0.0000 C   0  0
    0.0000    3.3000    0.0000 C   0  0
   -0.7145    3.7125    0.0000 C   0  0
   -0.7145    4.5375    0.0000 C   0  0
   -1.4289    4.9500    0.0000 O   0  0
   -1.4289    5.7750    0.0000 C   0  0
    0.0000    4.9500    0.0000 C   0  0
    0.7145    4.5375    0.0000 C   0  0
    1.4289    2.4750    0.0000 C   0  0
    2.1434    2.0625    0.0000 C   0  0
    2.8579    2.4750    0.0000 O   0  0
    2.1434    1.2375    0.0000 C   0  0
    1.4289    0.8250    0.0000 C   0  0
    1.4289    0.0000    0.0000 C   0  0
    2.1434   -0.4125    0.0000 C   0  0
    2.8579    0.0000    0.0000 C   0  0
    3.5724   -0.4125    0.0000 C   0  0
    3.5724   -1.2375    0.0000 C   0  0
    2.8579   -1.6500    0.0000 C   0  0
    2.1434   -1.2375    0.0000 C   0  0
    1.4289   -1.6500    0.0000 C   0  0
    0.7145   -1.2375    0.0000 C   0  0
    0.7145   -0.4125    0.0000 C   0  0
    0.7145    1.2375    0.0000 C   0  0
    0.7145    2.0625    0.0000 C   0  0
    0.0000    2.4750    0.0000 O   0  0
  1  2  1  0
  2  3  2  0
  3  4  1  0
  4  5  3  0
  3  6  1  0
  6  7  1  0
  7  8  2  0
  8  9  1  0
  9 10  2  0
 10 11  1  0
 11 12  1  0
 10 13  1  0
 13 14  2  0
  7 14  1  0
  6 15  1  0
 15 16  2  0
 16 17  1  0
  2 17  1  0
 16 18  1  0
 18 19  1  0
 19 20  1  0
 20 21  1  0
 21 22  2  0
 22 23  1  0
 23 24  2  0
 24 25  1  0
 21 26  1  0
 25 26  2  0
 26 27  1  0
 27 28  2  0
 28 29  1  0
 20 29  2  0
 19 30  1  0
 30 31  1  0
 15 31  1  0
 31 32  2  0
M  END
> <Library>
Bioactives

> <Batch>
2012

> <PLATE>
B1002L2012M01

> <WELL>
L18

> <EOS>
EOS100686

> <CCMF_source_vial_barcode>
LV2001696567

> <concentration_mM>
10

> <volume_ul>
30

$$$$
EOS100687
  SciTegic04282016392D

 30 33  0  0  0  0            999 V2000
    1.4271   -3.7606    0.0000 O   0  0
    0.3055   -2.5477    0.0000 O   0  0
    0.7954   -0.9701    0.0000 O   0  0
    2.7227   -2.0006    0.0000 O   0  0
    1.7491   -0.1074    0.0000 O   0  0
    2.4787   -2.7935    0.0000 C   0  0  2  0  0  0
    1.6689   -2.9768    0.0000 C   0  0  1  0  0  0
    1.1112   -2.3653    0.0000 C   0  0  2  0  0  0
    1.3521   -1.5775    0.0000 C   0  0  1  0  0  0
    2.1620   -1.3942    0.0000 C   0  0  1  0  0  0
    2.4068   -0.6054    0.0000 C   0  0
    3.2014   -3.1984    0.0000 C   0  0
    3.9121   -2.7795    0.0000 C   0  0
    3.2059   -4.0250    0.0000 C   0  0
    3.9222   -4.4299    0.0000 C   0  0
    4.6278   -3.1882    0.0000 C   0  0
    4.6339   -4.0140    0.0000 C   0  0
    5.3482   -4.4196    0.0000 O   0  0
    5.3361   -2.7677    0.0000 C   0  0
    6.0550   -3.1778    0.0000 C   0  0
    6.0608   -3.9998    0.0000 C   0  0
    6.7745   -4.4040    0.0000 C   0  0
    7.4828   -3.9872    0.0000 C   0  0
    7.4729   -3.1622    0.0000 C   0  0
    6.7588   -2.7617    0.0000 C   0  0
    8.1848   -2.7395    0.0000 O   0  0
    8.2039   -4.3939    0.0000 O   0  0
    5.3290   -1.9400    0.0000 O   0  0
    3.9081   -1.9518    0.0000 O   0  0
    2.4926   -4.4452    0.0000 O   0  0
  6  4  1  1
 14 15  1  0
 15 17  2  0
 16 17  1  0
  7  6  1  0
  7  8  1  0
  8  9  1  0
  9 10  1  0
 16 19  1  0
 17 18  1  0
 18 21  1  0
 20 19  1  0
 10 11  1  1
  7  1  1  6
 20 21  1  0
  8  2  1  1
 21 22  2  0
  9  3  1  6
 22 23  1  0
 23 24  2  0
  6 12  1  0
 24 25  1  0
 25 20  2  0
  5 11  1  0
 24 26  1  0
 16 13  2  0
 23 27  1  0
 13 12  1  0
 19 28  2  0
 10  4  1  0
 13 29  1  0
 12 14  2  0
 14 30  1  0
M  END
> <Library>
Bioactives

> <Batch>
2012

> <PLATE>
B1002L2012M01

> <WELL>
N18

> <EOS>
EOS100687

> <CCMF_source_vial_barcode>
LV2001696626

> <concentration_mM>
10

> <volume_ul>
30

$$$$
EOS100688
  SciTegic04282016392D

 35 36  0  0  0  0            999 V2000
    2.7515   -3.3402    0.0000 C   0  0
    3.4655   -3.7536    0.0000 C   0  0
    4.1794   -3.3402    0.0000 C   0  0
    4.8934   -3.7536    0.0000 C   0  0
    5.6074   -3.3402    0.0000 O   0  0
    6.3214   -3.7536    0.0000 C   0  0
    7.0354   -3.3402    0.0000 C   0  0
    7.7493   -3.7536    0.0000 C   0  0
    8.4633   -3.3402    0.0000 C   0  0
    9.1773   -3.7536    0.0000 C   0  0
    9.8913   -3.3402    0.0000 C   0  0
   10.6052   -3.7536    0.0000 C   0  0
   11.3192   -3.3402    0.0000 C   0  0
   12.0332   -3.7536    0.0000 C   0  0
    2.0375   -3.7536    0.0000 C   0  0  2  0  0  0
    1.3235   -3.3402    0.0000 O   0  0
    0.6126   -3.7497    0.0000 C   0  0
    0.6093   -4.5740    0.0000 C   0  0  1  0  0  0
    1.3232   -4.9873    0.0000 C   0  0  2  0  0  0
    2.0405   -4.5764    0.0000 C   0  0  1  0  0  0
   -0.1085   -4.9811    0.0000 C   0  0
    1.3214   -5.8140    0.0000 O   0  0
    2.7565   -4.9895    0.0000 O   0  0
   -0.1085   -5.8037    0.0000 C   0  0  1  0  0  0
   -0.8225   -6.2128    0.0000 C   0  0  1  0  0  0
   -0.1112   -6.6266    0.0000 O   0  0
   -1.5365   -5.7995    0.0000 C   0  0  2  0  0  0
   -1.5407   -4.9728    0.0000 C   0  0  2  0  0  0
   -0.8268   -4.5558    0.0000 C   0  0
   -2.2587   -4.5630    0.0000 O   0  0
   -2.2517   -6.2143    0.0000 C   0  0
    3.4655   -4.5803    0.0000 C   0  0
    4.8934   -4.5803    0.0000 O   0  0
   12.0322   -4.5803    0.0000 O   0  0
   12.7497   -3.3411    0.0000 O   0  0
  1  2  1  0
 20 15  1  0
 16 17  1  0
 18 17  1  0
 19 18  1  0
 19 20  1  0
  9 10  1  0
 18 21  1  1
 24 21  1  6
  4  5  1  0
 19 22  1  6
 10 11  1  0
 20 23  1  6
 25 24  1  0
 25 26  1  1
 24 26  1  0
 15  1  1  1
 11 12  1  0
  5  6  1  0
 12 13  1  0
 25 27  1  0
  2  3  2  0
 27 28  1  0
 13 14  1  0
 28 29  1  0
 15 16  1  0
 28 30  1  1
  6  7  1  0
 27 31  1  1
  2 32  1  0
  7  8  1  0
  4 33  2  0
  3  4  1  0
 14 34  1  0
  8  9  1  0
 14 35  2  0
M  END
> <Library>
Bioactives

> <Batch>
2012

> <PLATE>
B1002L2012M01

> <WELL>
P18

> <EOS>
EOS100688

> <CCMF_source_vial_barcode>
LV2001696703

> <concentration_mM>
10

> <volume_ul>
30

$$$$
EOS100689
  SciTegic04282016392D

 33 37  0  0  0  0            999 V2000
   -4.5312   -0.7045    0.0000 C   0  0
   -5.1987   -1.1894    0.0000 C   0  0
   -4.9438   -1.9740    0.0000 C   0  0
   -4.1187   -1.9740    0.0000 C   0  0
   -3.8638   -1.1894    0.0000 N   0  0
   -3.0792   -0.9345    0.0000 C   0  0
   -2.4661   -1.4865    0.0000 C   0  0
   -1.6815   -1.2316    0.0000 C   0  0
   -1.0684   -1.7836    0.0000 O   0  0
   -0.4850   -1.2003    0.0000 C   0  0
    0.9439   -0.3753    0.0000 C   0  0
    0.2295    0.0372    0.0000 C   0  0
   -0.4850   -0.3753    0.0000 C   0  0
    0.2295   -1.6128    0.0000 C   0  0
    0.9439   -1.2003    0.0000 C   0  0
    1.6584   -1.6128    0.0000 N   0  0
    2.3729   -1.2003    0.0000 C   0  0
    2.3729   -0.3753    0.0000 N   0  0
    1.6584    0.0372    0.0000 C   0  0
   -1.1995    0.0373    0.0000 O   0  0
   -1.9140   -0.3752    0.0000 C   0  0
    1.6584    0.8622    0.0000 O   0  0
    2.6626    1.3997    0.0000 C   0  0
    4.0916    2.2247    0.0000 C   0  0
    3.3772    2.6372    0.0000 C   0  0
    2.6626    2.2247    0.0000 C   0  0
    3.3772    0.9872    0.0000 C   0  0
    4.0916    1.3997    0.0000 C   0  0
    4.8762    2.4797    0.0000 N   0  0
    4.8763    1.1448    0.0000 C   0  0
    5.3612    1.8122    0.0000 C   0  0
    6.1862    1.8122    0.0000 C   0  0
    3.3772    0.1622    0.0000 F   0  0
  1  2  1  0
  1  5  1  0
  2  3  1  0
  3  4  1  0
  4  5  1  0
  5  6  1  0
  6  7  1  0
  7  8  1  0
  8  9  1  0
  9 10  1  0
 13 10  2  0
 10 14  1  0
 11 12  2  0
 11 15  1  0
 11 19  1  0
 12 13  1  0
 14 15  2  0
 15 16  1  0
 16 17  2  0
 17 18  1  0
 18 19  2  0
 13 20  1  0
 20 21  1  0
 19 22  1  0
 22 23  1  0
 26 23  2  0
 23 27  1  0
 24 25  2  0
 25 26  1  0
 27 28  2  0
 24 28  1  0
 28 30  1  0
 30 31  2  0
 31 29  1  0
 24 29  1  0
 31 32  1  0
 27 33  1  0
M  END
> <Library>
Bioactives

> <Batch>
2012

> <PLATE>
B1002L2012M01

> <WELL>
B20

> <EOS>
EOS100689

> <CCMF_source_vial_barcode>
LV2001696547

> <concentration_mM>
10

> <volume_ul>
30

$$$$
EOS100690
  SciTegic04282016392D

 19 20  0  0  1  0            999 V2000
    2.1519    2.3170    0.0000 C   0  0  2  0  0  0
    2.9557    2.4778    0.0000 N   0  0
    1.5439    2.8808    0.0000 O   0  0
    1.8126    1.5726    0.0000 C   0  0
    3.2178    3.2597    0.0000 C   0  0
    3.4953    1.8677    0.0000 C   0  0
    0.8325    2.4712    0.0000 C   0  0  1  0  0  0
    0.9933    1.6695    0.0000 C   0  0  1  0  0  0
    4.0283    3.4205    0.0000 N   0  0
    2.6804    3.8808    0.0000 O   0  0
    4.3058    2.0153    0.0000 C   0  0
    0.0793    2.8147    0.0000 C   0  0
    0.4250    1.0506    0.0000 O   0  0
    4.5745    2.7993    0.0000 C   0  0
    4.8476    1.4074    0.0000 C   0  0
    0.0000    3.6407    0.0000 O   0  0
    5.3850    2.9601    0.0000 O   0  0
    4.5855    0.6233    0.0000 C   0  0
    5.1318    0.0000    0.0000 Br  0  0
  1  2  1  0
  1  3  1  1
  1  4  1  0
  2  5  1  0
  2  6  1  0
  7  3  1  0
  8  4  1  0
  5  9  1  0
  5 10  2  0
  6 11  2  0
  7 12  1  1
  8 13  1  6
  9 14  1  0
 11 15  1  0
 12 16  1  0
 14 17  2  0
 15 18  2  0
 18 19  1  0
  7  8  1  0
 11 14  1  0
M  END
> <Library>
Bioactives

> <Batch>
2012

> <PLATE>
B1002L2012M01

> <WELL>
D20

> <EOS>
EOS100690

> <CCMF_source_vial_barcode>
LV2001696011

> <concentration_mM>
10

> <volume_ul>
30

$$$$
EOS100691
  SciTegic04282016392D

 32 34  0  0  0  0            999 V2000
    7.8375    2.1434    0.0000 C   0  0
    7.4250    1.4290    0.0000 N   0  0
    6.6000    1.4290    0.0000 C   0  0
    6.1875    2.1434    0.0000 C   0  0
    6.6000    2.8579    0.0000 C   0  0
    7.4250    2.8579    0.0000 N   0  0
    5.3625    2.1434    0.0000 C   0  0
    4.9500    2.8579    0.0000 O   0  0
    4.9500    1.4290    0.0000 N   0  0
    4.1250    1.4290    0.0000 C   0  0
    3.7125    2.1434    0.0000 C   0  0
    2.8875    2.1434    0.0000 C   0  0
    2.4750    2.8579    0.0000 C   0  0
    1.6500    2.8579    0.0000 C   0  0
    1.2375    3.5724    0.0000 C   0  0
    0.4125    3.5724    0.0000 C   0  0
    0.0000    4.2868    0.0000 O   0  0
    0.0000    2.8579    0.0000 N   0  0
    0.4125    2.1434    0.0000 O   0  0
    8.6625    2.1434    0.0000 N   0  0
    9.0750    2.8579    0.0000 C   0  0
    8.6625    3.5724    0.0000 C   0  0
    9.0750    4.2868    0.0000 C   0  0
    9.9000    4.2868    0.0000 C   0  0
   10.3125    3.5724    0.0000 C   0  0
    9.9000    2.8579    0.0000 C   0  0
    9.0750    1.4290    0.0000 C   0  0
    9.9000    1.4290    0.0000 C   0  0
   10.3125    0.7144    0.0000 C   0  0
    9.9000    0.0000    0.0000 C   0  0
    9.0750    0.0000    0.0000 C   0  0
    8.6625    0.7144    0.0000 C   0  0
  1  2  2  0
  2  3  1  0
  3  4  2  0
  4  5  1  0
  5  6  2  0
  1  6  1  0
  7  8  2  0
  7  9  1  0
  4  7  1  0
 10 11  1  0
 11 12  1  0
 12 13  1  0
 13 14  1  0
 14 15  1  0
 15 16  1  0
 16 17  2  0
 18 19  1  0
 16 18  1  0
  9 10  1  0
 21 22  2  0
 22 23  1  0
 23 24  2  0
 24 25  1  0
 25 26  2  0
 21 26  1  0
 20 21  1  0
 27 28  2  0
 28 29  1  0
 29 30  2  0
 30 31  1  0
 31 32  2  0
 27 32  1  0
 20 27  1  0
  1 20  1  0
M  END
> <Library>
Bioactives

> <Batch>
2012

> <PLATE>
B1002L2012M01

> <WELL>
F20

> <EOS>
EOS100691

> <CCMF_source_vial_barcode>
LV2001696578

> <concentration_mM>
10

> <volume_ul>
30

$$$$
EOS100692
  SciTegic04282016392D

 25 24  0  0  1  0            999 V2000
    1.3920   -2.5505    0.0000 C   0  0
    1.3920   -3.3756    0.0000 C   0  0
    2.1004   -3.7840    0.0000 C   0  0
    2.1004   -2.1337    0.0000 C   0  0
    2.8130   -2.5505    0.0000 C   0  0
    2.8130   -3.3756    0.0000 C   0  0
    3.5215   -3.7840    0.0000 C   0  0
    4.2383   -3.3756    0.0000 N   0  0
    4.2383   -2.5505    0.0000 C   0  0
    3.5215   -2.1337    0.0000 C   0  0
    3.5174   -1.3085    0.0000 F   0  0
    2.0962   -1.3085    0.0000 S   0  0
    2.0921   -0.4834    0.0000 N   0  0
    2.9173   -1.3044    0.0000 O   0  0
    1.2710   -1.3127    0.0000 O   0  0
    1.3503   -0.1250    0.0000 C   0  0
    1.1585    0.6793    0.0000 C   0  0
    2.8338   -0.1125    0.0000 C   0  0  2  0  0  0
    1.6670    1.3295    0.0000 C   0  0
    3.0131    0.6918    0.0000 C   0  0
    2.4880    1.3336    0.0000 N   0  0
    3.4840   -0.6168    0.0000 C   0  0
   -0.5668    0.5293    0.0000 Cl  0  0
    6.5179   -0.9085    0.0000 O   0  0
    6.5470   -1.9379    0.0000 O   0  0
  5  4  2  0
 10 11  1  0
  4 12  1  0
 12 13  1  0
 12 14  2  0
 12 15  2  0
  5  6  1  0
 13 16  1  0
  5 10  1  0
 16 17  1  0
  6  7  1  0
 18 13  1  0
  7  8  2  0
 17 19  1  0
  8  9  1  0
 18 20  1  0
  9 10  2  0
 19 21  1  0
 20 21  1  0
  1  2  2  0
 18 22  1  6
  1  4  1  0
  2  3  1  0
  3  6  2  0
M  END
> <Library>
Bioactives

> <Batch>
2012

> <PLATE>
B1002L2012M01

> <WELL>
H20

> <EOS>
EOS100692

> <CCMF_source_vial_barcode>
LV2001695398

> <concentration_mM>
10

> <volume_ul>
30

$$$$
EOS100693
  SciTegic04282016392D

 30 32  0  0  0  0            999 V2000
    6.5708   -2.7228    0.0000 C   0  0
    6.5708   -3.5525    0.0000 N   0  0
    7.2813   -2.3079    0.0000 C   0  0
    5.7554   -2.7228    0.0000 N   0  0
   -0.9727   -1.8931    0.0000 N   0  0
    7.9870   -3.5525    0.0000 S   0  0
    0.4483   -1.8931    0.0000 C   0  0
   -0.9822   -2.7180    0.0000 C   0  0
    0.4483   -2.7228    0.0000 C   0  0
    1.1586   -1.4877    0.0000 C   0  0
    7.9870   -2.7371    0.0000 C   0  0
    1.8645   -1.8931    0.0000 C   0  0
    1.8645   -2.7228    0.0000 C   0  0
    4.1103   -2.7228    0.0000 N   0  0
    1.1586   -3.1376    0.0000 C   0  0
   -0.2670   -3.1376    0.0000 C   0  0
    5.3406   -3.4332    0.0000 C   0  0
    5.3500   -2.0076    0.0000 C   0  0
   -1.6975   -3.1233    0.0000 O   0  0
    2.5797   -3.1376    0.0000 C   0  0
    3.2950   -2.7228    0.0000 C   0  0
    4.5204   -2.0076    0.0000 C   0  0
    4.5204   -3.4237    0.0000 C   0  0
    2.5797   -1.4782    0.0000 Cl  0  0
    7.2861   -1.4925    0.0000 C   0  0
    0.8487   -4.2534    0.0000 Cl  0  0
    2.8085   -4.1389    0.0000 O   0  0
    8.7022   -2.3317    0.0000 C   0  0
    8.0013   -1.0920    0.0000 C   0  0
    8.7165   -1.5068    0.0000 C   0  0
  2  1  2  0
  3  1  1  0
  4  1  1  0
  5  7  1  0
  6  2  1  0
  7  9  2  0
  8 16  1  0
  9 15  1  0
 10 12  2  0
 11  3  1  0
 12 13  1  0
 13 20  1  0
 14 22  1  0
 15 13  2  0
 16  9  1  0
 17  4  1  0
 18  4  1  0
 19  8  2  0
 20 21  1  0
 21 14  1  0
 22 18  1  0
 23 17  1  0
 24 12  1  0
 25  3  2  0
 28 11  2  0
 29 25  1  0
 30 29  2  0
 11  6  1  0
 23 14  1  0
 30 28  1  0
  7 10  1  0
  8  5  1  0
M  END
> <Library>
Bioactives

> <Batch>
2012

> <PLATE>
B1002L2012M01

> <WELL>
J20

> <EOS>
EOS100693

> <CCMF_source_vial_barcode>
LV2001695385

> <concentration_mM>
10

> <volume_ul>
30

$$$$
EOS100694
  SciTegic04282016392D

 58 60  0  0  0  0            999 V2000
    2.3641   -2.7294    0.0000 C   0  0  2  0  0  0
    2.3742   -1.8924    0.0000 C   0  0
    1.6589   -1.4814    0.0000 C   0  0
    1.6640   -0.6444    0.0000 N   0  0
    3.1860   -2.7294    0.0000 O   0  0
    3.6071    0.4819    0.0000 O   0  0
    3.2012   -0.2334    0.0000 C   0  0
    3.6122    1.5168    0.0000 C   0  0  2  0  0  0
    3.6071   -3.4447    0.0000 C   0  0  1  0  0  0
    2.3793   -0.2486    0.0000 C   0  0  2  0  0  0
    2.8917    1.9278    0.0000 C   0  0
    4.3223    1.9278    0.0000 C   0  0  1  0  0  0
    1.9532   -3.4447    0.0000 C   0  0  1  0  0  0
    6.4734    1.5168    0.0000 C   0  0
    5.0428    1.5168    0.0000 C   0  0  2  0  0  0
    5.7581    1.9278    0.0000 C   0  0
    2.8968    2.7648    0.0000 C   0  0
    3.2012   -4.1600    0.0000 C   0  0  2  0  0  0
    5.7581    0.2740    0.0000 C   0  0
    4.3223   -3.0338    0.0000 C   0  0  2  0  0  0
    5.7529   -0.5531    0.0000 C   0  0
    2.3641   -4.1600    0.0000 C   0  0
    6.4683    0.6849    0.0000 C   0  0  1  0  0  0
    3.0896   -1.4814    0.0000 O   0  0
    0.9335   -1.8872    0.0000 O   0  0
    3.6274   -0.9487    0.0000 O   0  0
    0.7508    3.1758    0.0000 C   0  0  2  0  0  0
    2.1764    3.1758    0.0000 C   0  0  1  0  0  0
    4.3122   -2.2068    0.0000 C   0  0
    1.5423   -2.7294    0.0000 O   0  0
    1.4611    2.7648    0.0000 C   0  0
    7.1887    1.9278    0.0000 O   0  0
    0.7508    3.9976    0.0000 C   0  0  1  0  0  0
    5.0377   -0.9639    0.0000 C   0  0
    5.0276   -1.7858    0.0000 C   0  0  2  0  0  0
    7.8989    0.6849    0.0000 C   0  0
    1.4611    4.4237    0.0000 C   0  0
    8.6193    0.2689    0.0000 C   0  0
    0.9487   -0.2334    0.0000 C   0  0
    5.0377    0.6849    0.0000 O   0  0
    2.1764    3.9976    0.0000 C   0  0
    3.6122   -4.8754    0.0000 O   0  0
    5.0428   -3.4295    0.0000 O   0  0
    0.0356    2.7648    0.0000 O   0  0
    0.0356    4.4136    0.0000 O   0  0
    2.1764    1.5168    0.0000 C   0  0
    4.3274    2.7648    0.0000 C   0  0
    7.1887    0.2740    0.0000 C   0  0
    2.3793    0.5784    0.0000 C   0  0
    1.1262   -3.4447    0.0000 C   0  0
    6.4683   -0.9639    0.0000 C   0  0
    7.1379    4.1498    0.0000 O   0  0
    5.7529   -2.2068    0.0000 C   0  0
    5.7581   -3.0033    0.0000 C   0  0
    4.4340   -4.8754    0.0000 C   0  0
   -0.6798    3.1758    0.0000 C   0  0
    0.9487    0.5885    0.0000 C   0  0
    1.6793    0.9993    0.0000 C   0  0
  1  2  1  0
  3  2  1  0
  4  3  1  0
  1  5  1  0
  6  7  1  0
 10  7  1  0
  8  6  1  0
  9  5  1  6
 10  4  1  1
  8 11  1  6
 12  8  1  0
  1 13  1  0
 23 14  1  0
 12 15  1  0
 15 16  1  0
 17 11  2  0
 18 22  1  0
 19 21  2  0
  9 20  1  0
 21 34  1  0
 13 22  1  0
 23 19  1  0
 24  2  2  0
 25  3  2  0
 26  7  2  0
 27 31  1  0
 28 17  1  1
 20 29  1  0
  1 30  1  1
 28 31  1  0
 32 14  2  0
 33 37  1  0
 35 34  1  0
 35 29  1  0
 36 48  1  0
 37 41  1  0
 38 36  2  0
 39  4  1  0
 15 40  1  6
 28 41  1  0
 18 42  1  1
 20 43  1  6
 27 44  1  1
 33 45  1  6
 46 11  1  0
 12 47  1  6
 23 48  1  6
 10 49  1  0
 13 50  1  1
 51 21  1  0
 35 53  1  6
 54 43  1  0
 55 42  1  0
 56 44  1  0
 57 39  1  0
 58 57  1  0
  9 18  1  0
 49 58  1  0
 16 14  1  0
 27 33  1  0
M  END
> <Library>
Bioactives

> <Batch>
2012

> <PLATE>
B1002L2012M01

> <WELL>
L20

> <EOS>
EOS100694

> <CCMF_source_vial_barcode>
LV2001695431

> <concentration_mM>
10

> <volume_ul>
30

$$$$
EOS100695
  SciTegic04282016392D

 13 14  0  0  0  0            999 V2000
   -4.7609  -22.5558    0.0000 C   0  0
   -4.0505  -22.9683    0.0000 C   0  0
   -4.7609  -21.7308    0.0000 C   0  0
   -3.3286  -22.5558    0.0000 C   0  0
   -4.0505  -21.3183    0.0000 C   0  0
   -3.3344  -21.7250    0.0000 C   0  0
   -5.4770  -22.9797    0.0000 N   0  0
   -4.0391  -23.7933    0.0000 O   0  0
   -2.6239  -22.9683    0.0000 I   0  0
   -4.0562  -20.4933    0.0000 Cl  0  0
   -5.4770  -21.3183    0.0000 C   0  0
   -6.1875  -22.5672    0.0000 C   0  0
   -6.1875  -21.7422    0.0000 C   0  0
  2  1  2  0
  3  1  1  0
  4  2  1  0
  5  3  2  0
  6  5  1  0
  7  1  1  0
  8  2  1  0
  9  4  1  0
 10  5  1  0
 11  3  1  0
 12  7  2  0
 13 12  1  0
 11 13  2  0
  4  6  2  0
M  END
> <Library>
Bioactives

> <Batch>
2012

> <PLATE>
B1002L2012M01

> <WELL>
N20

> <EOS>
EOS100695

> <CCMF_source_vial_barcode>
LV2001695432

> <concentration_mM>
10

> <volume_ul>
30

$$$$
EOS100696
  SciTegic04282016393D

 22 25  0  0  0  0            999 V2000
    6.5042   -7.8167   -0.0042 C   0  0
    6.3292   -8.6292    0.0000 C   0  0
    5.9667   -7.1917   -0.0292 C   0  0
    5.1542   -7.2000   -0.0250 N   0  0
    5.5917   -9.0000    0.0000 N   0  0
    7.0500   -9.0417    0.0292 S   0  0
    6.2375   -6.4167   -0.0667 N   0  0
    7.3250   -7.7292    0.0042 C   0  0
    7.6625   -8.4875    0.0292 C   0  0
    4.6417   -7.8500   -0.0042 C   0  0
    4.8417   -8.6500    0.0042 C   0  0
    6.7667   -4.8500   -0.1542 N   0  0
    5.6917   -5.7917   -0.0542 C   0  0
    7.0417   -6.2542   -0.2167 C   0  0
    7.3125   -5.4792    0.0792 C   0  0
    5.9625   -5.0167    0.2250 C   0  0
    7.0417   -4.0542    0.1042 C   0  0
    8.4750   -8.6500    0.0500 C   0  0
    3.8542   -7.6167    0.0000 C   0  0
    4.2500   -9.2167    0.0167 C   0  0
    3.2625   -8.1875    0.0167 C   0  0
    3.4625   -8.9875    0.0250 C   0  0
  2  1  2  0
  3  1  1  0
  4  3  2  0
  5  2  1  0
  6  2  1  0
  7  3  1  0
  8  1  1  0
  9  8  2  0
 10  4  1  0
 11  5  1  0
 12 15  1  0
 13  7  1  0
 14  7  1  0
 15 14  1  0
 16 13  1  0
 17 12  1  0
 18  9  1  0
 19 10  2  0
 20 11  2  0
 21 19  1  0
 22 20  1  0
  9  6  1  0
 10 11  1  0
 12 16  1  0
 22 21  2  0
M  END
> <Library>
Bioactives

> <Batch>
2012

> <PLATE>
B1002L2012M01

> <WELL>
P20

> <EOS>
EOS100696

> <CCMF_source_vial_barcode>
LV2001696676

> <concentration_mM>
10

> <volume_ul>
30

$$$$
EOS100697
  SciTegic04282016392D

 26 27  0  0  0  0            999 V2000
    1.2140   -0.3204    0.0000 C   0  0
    0.4996   -0.7329    0.0000 C   0  0
    1.2140    0.5046    0.0000 N   0  0
    1.9285   -0.7329    0.0000 C   0  0
   -0.2149   -0.3204    0.0000 C   0  0
    1.9893    0.7867    0.0000 C   0  0
    0.4996   -1.5579    0.0000 C   0  0
    2.1326    1.5992    0.0000 C   0  0
    2.9078    1.8814    0.0000 C   0  0
    1.9285   -1.5579    0.0000 C   0  0
   -0.2149    0.5046    0.0000 O   0  0
    1.2140   -1.9704    0.0000 C   0  0
   -0.9294   -0.7329    0.0000 N   0  0
    2.6213    0.2565    0.0000 C   0  0
    2.6430   -0.3204    0.0000 F   0  0
    3.5398    1.3511    0.0000 C   0  0
   -1.5614   -0.2026    0.0000 O   0  0
    1.6902    1.9704    0.0000 F   0  0
   -2.2758   -0.6151    0.0000 C   0  0
   -2.9078   -0.0848    0.0000 C   0  0  2  0  0  0
    2.6430   -1.9704    0.0000 F   0  0
    3.3966    0.5386    0.0000 C   0  0
    4.3151    1.6332    0.0000 I   0  0
   -2.7646    0.7277    0.0000 O   0  0
   -4.3151    0.1633    0.0000 O   0  0
   -3.6831   -0.3670    0.0000 C   0  0
  2  1  2  0
  3  1  1  0
  4  1  1  0
  5  2  1  0
  7  2  1  0
  6  3  1  0
 10  4  2  0
 15  4  1  0
 11  5  2  0
 13  5  1  0
  8  6  2  0
 14  6  1  0
  7 12  2  0
  9  8  1  0
 18  8  1  0
 16  9  2  0
 12 10  1  0
 21 10  1  0
 17 13  1  0
 22 14  2  0
 23 16  1  0
 16 22  1  0
 19 17  1  0
 20 19  1  0
 20 24  1  1
 20 26  1  0
 25 26  1  0
M  END
> <Library>
Bioactives

> <Batch>
2012

> <PLATE>
B1002L2012M01

> <WELL>
B22

> <EOS>
EOS100697

> <CCMF_source_vial_barcode>
LV2001696625

> <concentration_mM>
10

> <volume_ul>
30

$$$$
EOS100698
  SciTegic04282016392D

 28 29  0  0  0  0            999 V2000
    9.4791   -3.3730    0.0000 C   0  0  2  0  0  0
    9.4788   -4.1980    0.0000 N   0  0
    8.6539   -4.1977    0.0000 C   0  0
    8.6541   -3.3729    0.0000 C   0  0  1  0  0  0
    7.7608   -2.9066    0.0000 N   0  0
    6.7397   -2.6185    0.0000 C   0  0
    5.8752   -2.9140    0.0000 C   0  0
    6.7522   -1.7499    0.0000 O   0  0
    5.1635   -2.6794    0.0000 C   0  0
    4.9240   -1.8900    0.0000 C   0  0
    4.0993   -1.8738    0.0000 S   0  0
    3.8291   -2.6532    0.0000 C   0  0
    4.4868   -3.1511    0.0000 N   0  0
    2.9743   -2.8918    0.0000 N   0  0
    5.8485   -3.7788    0.0000 N   0  0
    6.5540   -4.4427    0.0000 O   0  0
    6.9081   -5.2049    0.0000 C   0  0
    7.3612   -4.6088    0.0000 C   0  0
    7.5155   -5.3330    0.0000 C   0  0
   10.2318   -2.8945    0.0000 C   0  0
    8.1523   -4.6746    0.0000 O   0  0
   10.1201   -4.8516    0.0000 S   0  0
   11.2940   -3.6997    0.0000 O   0  0
   11.2719   -6.0254    0.0000 O   0  0
    8.9462   -6.0034    0.0000 O   0  0
    6.1941   -5.6955    0.0000 C   0  0
    6.3230   -7.3351    0.0000 O   0  0
    4.7127   -4.9888    0.0000 O   0  0
  5  6  1  0
  6  7  1  0
  6  8  2  0
  7  9  1  0
  9 10  2  0
 10 11  1  0
 11 12  1  0
 12 13  2  0
 13  9  1  0
 12 14  1  0
  7 15  2  0
 15 16  1  0
 16 17  1  0
 17 26  1  0
 17 18  1  0
 17 19  1  0
  1 20  1  6
  3 21  2  0
  1  2  1  0
  2  3  1  0
  4  3  1  0
  1  4  1  0
  2 22  1  0
  4  5  1  1
 22 23  2  0
 22 24  2  0
 22 25  1  0
 26 27  2  0
 26 28  1  0
M  END
> <Library>
Bioactives

> <Batch>
2012

> <PLATE>
B1002L2012M01

> <WELL>
D22

> <EOS>
EOS100698

> <CCMF_source_vial_barcode>
LV2001696675

> <concentration_mM>
10

> <volume_ul>
30

$$$$
EOS100699
  SciTegic04282016392D

 26 28  0  0  0  0            999 V2000
   18.1918  -24.1623    0.0000 C   0  0
   18.9063  -23.7498    0.0000 N   0  0
   19.6208  -24.1623    0.0000 C   0  0
   19.6208  -24.9873    0.0000 C   0  0
   18.9063  -25.3998    0.0000 C   0  0
   18.1918  -24.9873    0.0000 N   0  0
   17.4773  -23.7498    0.0000 N   0  0
   16.7629  -24.1623    0.0000 C   0  0
   16.7629  -24.9873    0.0000 C   0  0
   16.0484  -25.3998    0.0000 C   0  0
   15.3339  -24.9873    0.0000 C   0  0
   15.3339  -24.1623    0.0000 C   0  0
   16.0484  -23.7498    0.0000 C   0  0
   14.6195  -25.3998    0.0000 S   0  0
   14.2070  -24.6853    0.0000 O   0  0
   15.0320  -26.1143    0.0000 O   0  0
   13.9050  -25.8123    0.0000 C   0  0
   21.2284  -22.7578    0.0000 C   0  0
   21.6409  -23.4723    0.0000 N   0  0
   21.0889  -24.0853    0.0000 C   0  0
   20.3352  -23.7498    0.0000 C   0  0
   20.4214  -22.9293    0.0000 N   0  0
   21.5640  -22.0041    0.0000 C   0  0
   19.8083  -22.3773    0.0000 C   0  0
   19.9799  -21.5703    0.0000 C   0  0
   19.0238  -22.6322    0.0000 C   0  0
  1  2  2  0
  2  3  1  0
  3  4  2  0
  4  5  1  0
  5  6  2  0
  1  6  1  0
  1  7  1  0
  8  9  2  0
  9 10  1  0
 10 11  2  0
 11 12  1  0
 12 13  2  0
  8 13  1  0
 14 15  2  0
 14 16  2  0
 14 17  1  0
 11 14  1  0
  7  8  1  0
 18 19  2  0
 19 20  1  0
 20 21  2  0
 21 22  1  0
 18 22  1  0
 18 23  1  0
 24 25  1  0
 24 26  1  0
 22 24  1  0
  3 21  1  0
M  END
> <Library>
Bioactives

> <Batch>
2012

> <PLATE>
B1002L2012M01

> <WELL>
F22

> <EOS>
EOS100699

> <CCMF_source_vial_barcode>
LV2001696691

> <concentration_mM>
10

> <volume_ul>
30

$$$$
EOS100700
  SciTegic04282016392D

 41 43  0  0  0  0            999 V2000
    3.8650   -2.0449    0.0000 N   0  0
    5.2977   -4.5189    0.0000 C   0  0
   -1.8450   -4.5106    0.0000 C   0  0
    4.2690   -0.7789    0.0000 N   0  0
   -1.8450   -5.3310    0.0000 N   0  0
    4.5231   -1.5576    0.0000 C   0  0
    3.8650   -2.8655    0.0000 C   0  0
    1.7243   -4.1065    0.0000 C   0  0
    4.5813   -4.1065    0.0000 C   0  0
    3.1903   -1.5618    0.0000 C   0  0
   -0.4206   -4.5148    0.0000 C   0  0
   -1.1328   -4.0982    0.0000 N   0  0
    2.4364   -4.5189    0.0000 N   0  0
    3.1528   -4.1065    0.0000 C   0  0
    1.0079   -4.5189    0.0000 C   0  0
   -2.5489   -5.7433    0.0000 C   0  0
    3.4443   -0.7789    0.0000 C   0  0
    3.1528   -3.2778    0.0000 C   0  0
    4.5813   -3.2778    0.0000 C   0  0
    0.2957   -4.1024    0.0000 C   0  0
   -2.5572   -4.0940    0.0000 N   0  0
    3.8650   -4.5189    0.0000 C   0  0
   -2.5489   -6.5680    0.0000 C   0  0
   -0.4206   -5.3394    0.0000 C   0  0
    1.7243   -3.2819    0.0000 O   0  0
   -3.2611   -7.8049    0.0000 N   0  0
    1.0079   -5.3394    0.0000 C   0  0
    5.5101   -5.3144    0.0000 F   0  0
    6.0099   -4.1024    0.0000 F   0  0
    5.0770   -5.3144    0.0000 F   0  0
    0.2999   -5.7517    0.0000 C   0  0
   -3.2694   -5.3310    0.0000 C   0  0
   -3.2694   -4.5064    0.0000 C   0  0
   -3.2611   -6.9803    0.0000 C   0  0
   -1.2827   -2.9362    0.0000 Cl  0  0
    2.9570   -0.1125    0.0000 C   0  0
   -1.8284   -6.9762    0.0000 C   0  0
   -2.5447   -8.2173    0.0000 C   0  0
   -1.1328   -5.7517    0.0000 C   0  0
   -1.8284   -7.7966    0.0000 C   0  0
    0.3623   -2.2476    0.0000 O   0  0
  2  9  1  0
  3 12  1  0
  4  6  2  0
  5  3  2  0
  6  1  1  0
  7  1  1  0
  8 13  1  0
  9 19  2  0
 10  1  1  0
 11 20  2  0
 12 11  1  0
 13 14  1  0
 14 18  1  0
 15  8  1  0
 16  5  1  0
 17 10  2  0
 18  7  2  0
 19  7  1  0
 20 15  1  0
 21  3  1  0
 22 14  2  0
 23 16  1  0
 24 31  2  0
 25  8  2  0
 26 34  1  0
 27 15  2  0
 28  2  1  0
 29  2  1  0
 30  2  1  0
 31 27  1  0
 32 16  2  0
 33 21  2  0
 34 23  2  0
 36 17  1  0
 37 23  1  0
 38 40  1  0
 39 24  1  0
 40 37  2  0
 17  4  1  0
  9 22  1  0
 24 11  1  0
 32 33  1  0
 38 26  2  0
M  END
> <Library>
Bioactives

> <Batch>
2012

> <PLATE>
B1002L2012M01

> <WELL>
H22

> <EOS>
EOS100700

> <CCMF_source_vial_barcode>
LV2001695375

> <concentration_mM>
10

> <volume_ul>
30

$$$$
EOS100701
  SciTegic04282016392D

 27 30  0  0  0  0            999 V2000
    3.3523    1.9354    0.0000 C   0  0
    3.3523    1.1104    0.0000 C   0  0
    2.6378    0.6979    0.0000 C   0  0
    1.9233    1.1104    0.0000 C   0  0
    1.9233    1.9354    0.0000 C   0  0
    2.6378    2.3479    0.0000 C   0  0
    1.1387    2.1904    0.0000 N   0  0
    0.6538    1.5229    0.0000 C   0  0
    1.1387    0.8555    0.0000 S   0  0
   -0.1712    1.5229    0.0000 C   0  0
   -0.5837    0.8085    0.0000 C   0  0
   -0.9962    0.0940    0.0000 N   0  0
   -0.5837    2.2374    0.0000 C   0  0
   -1.4087    2.2374    0.0000 N   0  0
   -1.8212    2.9519    0.0000 C   0  0
   -1.4087    3.6664    0.0000 N   0  0
   -0.5837    3.6664    0.0000 C   0  0
   -0.1712    2.9519    0.0000 C   0  0
   -2.6462    2.9519    0.0000 N   0  0
   -3.0587    3.6664    0.0000 C   0  0
   -3.8837    3.6664    0.0000 C   0  0
   -4.2962    4.3808    0.0000 C   0  0
   -5.1212    4.3808    0.0000 C   0  0
   -5.5337    5.0953    0.0000 N   0  0
   -5.1212    5.8098    0.0000 C   0  0
   -4.2962    5.8098    0.0000 C   0  0
   -3.8837    5.0953    0.0000 C   0  0
  1  2  2  0
  2  3  1  0
  3  4  2  0
  4  5  1  0
  5  6  2  0
  1  6  1  0
  5  7  1  0
  7  8  2  0
  8  9  1  0
  4  9  1  0
  8 10  1  0
 10 11  1  0
 11 12  3  0
 10 13  1  0
 13 14  2  0
 14 15  1  0
 15 16  2  0
 16 17  1  0
 17 18  2  0
 13 18  1  0
 15 19  1  0
 19 20  1  0
 20 21  1  0
 21 22  1  0
 22 23  2  0
 23 24  1  0
 24 25  2  0
 25 26  1  0
 26 27  2  0
 22 27  1  0
M  END
> <Library>
Bioactives

> <Batch>
2012

> <PLATE>
B1002L2012M01

> <WELL>
J22

> <EOS>
EOS100701

> <CCMF_source_vial_barcode>
LV2001695345

> <concentration_mM>
10

> <volume_ul>
30

$$$$
EOS100702
  SciTegic04282016392D

 27 29  0  0  0  0            999 V2000
   -1.5793    0.7200    0.0000 C   0  0
   -1.5793   -0.1050    0.0000 C   0  0
   -2.2938   -0.5175    0.0000 C   0  0
   -3.0082   -0.1050    0.0000 C   0  0
   -3.0082    0.7200    0.0000 C   0  0
   -2.2938    1.1325    0.0000 N   0  3
   -3.7227    1.1325    0.0000 C   0  0
   -2.2938   -1.3425    0.0000 C   0  0
   -2.2938    1.9575    0.0000 O   0  5
    0.0283   -1.5095    0.0000 O   0  0
   -0.7786   -1.3380    0.0000 N   0  0
   -0.8649   -0.5175    0.0000 C   0  0
   -0.1112   -0.1820    0.0000 N   0  0
    0.4408   -0.7951    0.0000 C   0  0
    1.2613   -0.7088    0.0000 C   0  0
    1.7462   -1.3763    0.0000 C   0  0
    2.5667   -1.2900    0.0000 C   0  0
    2.9022   -0.5364    0.0000 C   0  0
    2.4174    0.1311    0.0000 C   0  0
    1.5969    0.0448    0.0000 C   0  0
    2.7529    0.8848    0.0000 N   0  3
    2.2680    1.5522    0.0000 O   0  0
    3.5733    0.9710    0.0000 O   0  5
    3.7227   -0.4501    0.0000 O   0  0
    3.0515   -1.9575    0.0000 O   0  0
   -3.7227   -0.5175    0.0000 Cl  0  0
   -0.8649    1.1325    0.0000 Cl  0  0
  1  2  2  0
  2  3  1  0
  3  4  2  0
  4  5  1  0
  5  6  2  0
  1  6  1  0
  5  7  1  0
  3  8  1  0
  6  9  1  0
 10 11  1  0
 11 12  2  0
 12 13  1  0
 13 14  2  0
 10 14  1  0
 15 16  2  0
 16 17  1  0
 17 18  2  0
 18 19  1  0
 19 20  2  0
 15 20  1  0
 21 22  2  0
 21 23  1  0
 19 21  1  0
 18 24  1  0
 17 25  1  0
 14 15  1  0
  2 12  1  0
  4 26  1  0
  1 27  1  0
M  CHG  4   6   1   9  -1  21   1  23  -1
M  END
> <Library>
Bioactives

> <Batch>
2012

> <PLATE>
B1002L2012M01

> <WELL>
L22

> <EOS>
EOS100702

> <CCMF_source_vial_barcode>
LV2001695354

> <concentration_mM>
10

> <volume_ul>
30

$$$$
EOS100703
  SciTegic04282016392D

 41 45  0  0  0  0            999 V2000
  -12.2481    2.5424    0.0000 C   0  0
  -11.4411    2.3709    0.0000 N   0  0
  -11.1862    1.5863    0.0000 C   0  0
  -10.3792    1.4147    0.0000 C   0  0
  -10.1243    0.6301    0.0000 C   0  0
   -9.3173    0.4586    0.0000 C   0  0
   -8.7653    1.0717    0.0000 N   0  0
   -7.9583    0.9001    0.0000 C   0  0
   -7.4063    1.5132    0.0000 C   0  0
   -6.5993    1.3417    0.0000 C   0  0
   -6.3443    0.5571    0.0000 C   0  0
   -5.5374    0.3856    0.0000 C   0  0
   -4.9853    0.9987    0.0000 N   0  0
   -4.1784    0.8271    0.0000 C   0  0
   -3.6263    1.4402    0.0000 C   0  0
   -2.8194    1.2687    0.0000 C   0  0
   -2.2673    1.8818    0.0000 N   0  0
   -1.4604    1.7103    0.0000 C   0  0
   -0.9083    2.3234    0.0000 N   0  0
   -0.1014    2.1518    0.0000 C   0  0
    0.1536    1.3672    0.0000 C   0  0
    0.9606    1.1957    0.0000 Cl  0  0
   -0.3984    0.7541    0.0000 C   0  0
   -0.1435   -0.0305    0.0000 C   0  0
   -0.6284   -0.6979    0.0000 C   0  0
   -0.1435   -1.3654    0.0000 N   0  0
    0.6411   -1.1104    0.0000 C   0  0
    0.6411   -0.2854    0.0000 C   0  0
    1.3556    0.1271    0.0000 C   0  0
    2.0701   -0.2854    0.0000 C   0  0
    2.0701   -1.1104    0.0000 C   0  0
    1.3556   -1.5229    0.0000 C   0  0
   -1.2054    0.9256    0.0000 N   0  0
   -2.5644    0.4841    0.0000 C   0  0
   -3.1165   -0.1290    0.0000 C   0  0
   -3.9234    0.0425    0.0000 C   0  0
   -5.2824   -0.3991    0.0000 O   0  0
   -6.8964   -0.0560    0.0000 C   0  0
   -7.7033    0.1155    0.0000 C   0  0
   -9.0624   -0.3260    0.0000 O   0  0
  -10.8891    2.9840    0.0000 C   0  0
  1  2  1  0
  2  3  1  0
  3  4  1  0
  4  5  2  0
  5  6  1  0
  6  7  1  0
  7  8  1  0
  8  9  2  0
  9 10  1  0
 10 11  2  0
 11 12  1  0
 12 13  1  0
 13 14  1  0
 14 15  2  0
 15 16  1  0
 16 17  1  0
 17 18  1  0
 18 19  2  0
 19 20  1  0
 20 21  2  0
 21 22  1  0
 21 23  1  0
 23 24  1  0
 24 25  2  0
 25 26  1  0
 26 27  1  0
 27 28  1  0
 24 28  1  0
 28 29  2  0
 29 30  1  0
 30 31  2  0
 31 32  1  0
 27 32  2  0
 23 33  2  0
 18 33  1  0
 16 34  2  0
 34 35  1  0
 35 36  2  0
 14 36  1  0
 12 37  2  0
 11 38  1  0
 38 39  2  0
  8 39  1  0
  6 40  2  0
  2 41  1  0
M  END
> <Library>
Bioactives

> <Batch>
2012

> <PLATE>
B1002L2012M01

> <WELL>
N22

> <EOS>
EOS100703

> <CCMF_source_vial_barcode>
LV2001696545

> <concentration_mM>
10

> <volume_ul>
30

$$$$
EOS100704
  SciTegic04282016392D

 39 42  0  0  0  0            999 V2000
   -0.7955   -0.1232    0.0000 O   0  0
   -1.4630   -0.6082    0.0000 C   0  0  1  0  0  0
   -1.2080   -1.3927    0.0000 C   0  0  2  0  0  0
   -0.3830   -1.3927    0.0000 C   0  0  2  0  0  0
   -0.1281   -0.6082    0.0000 C   0  0  2  0  0  0
    0.2464    0.1269    0.0000 N   0  0
    1.0613    0.2560    0.0000 C   0  0
    1.1903    1.0708    0.0000 C   0  0
    0.4553    1.4453    0.0000 C   0  0
   -0.1281    0.8620    0.0000 C   0  0
   -1.6765    0.1887    0.0000 C   0  0
   -2.5015    0.1887    0.0000 N   0  0
   -2.9140   -0.5257    0.0000 C   0  0
   -3.7390   -0.5257    0.0000 C   0  0
   -4.1515   -1.2402    0.0000 C   0  0
   -4.9765   -1.2402    0.0000 N   0  0
   -5.3890   -0.5257    0.0000 C   0  0
   -6.2140   -0.5257    0.0000 O   0  0
   -4.9765    0.1887    0.0000 N   0  0
   -4.9765    1.0137    0.0000 C   0  0
   -4.2620    1.4262    0.0000 C   0  0
   -4.2620    2.2513    0.0000 C   0  0
   -4.9765    2.6638    0.0000 C   0  0
   -5.6910    2.2513    0.0000 C   0  0
   -5.6910    1.4262    0.0000 C   0  0
    1.7024   -0.2632    0.0000 N   0  0
    2.4726    0.0324    0.0000 C   0  0
    2.6017    0.8472    0.0000 N   0  0
    1.9606    1.3665    0.0000 C   0  0
   -4.9765    3.4888    0.0000 C   0  0
   -5.6910    3.9013    0.0000 C   0  0
   -4.2620    3.9013    0.0000 C   0  0
   -4.9765    4.3138    0.0000 C   0  0
    2.0896    2.1813    0.0000 N   0  0
   -1.6205   -2.1072    0.0000 O   0  0
    0.0295   -2.1072    0.0000 O   0  0
   -2.9140    0.9032    0.0000 C   0  0
   -3.7390    0.9032    0.0000 C   0  0
   -2.5015    1.6177    0.0000 C   0  0
  2  1  1  0
  5  1  1  1
  3  2  1  0
  3  4  1  0
  4  5  1  0
  5  6  1  0
  6  7  1  0
  6 10  1  0
  8  9  1  0
  9 10  2  0
  2 11  1  1
 11 12  1  0
 12 13  1  0
 13 14  1  0
 14 15  1  0
 15 16  1  0
 16 17  1  0
 17 18  2  0
 17 19  1  0
 19 20  1  0
 20 21  2  0
 20 25  1  0
 21 22  1  0
 22 23  2  0
 23 24  1  0
 24 25  2  0
  7 26  2  0
  8  7  1  0
  8 29  2  0
 26 27  1  0
 27 28  2  0
 28 29  1  0
 23 30  1  0
 30 31  1  0
 30 32  1  0
 30 33  1  0
 29 34  1  0
  3 35  1  6
  4 36  1  6
 12 37  1  0
 37 38  1  0
 37 39  1  0
M  END
> <Library>
Bioactives

> <Batch>
2012

> <PLATE>
B1002L2012M01

> <WELL>
P22

> <EOS>
EOS100704

> <CCMF_source_vial_barcode>
LV2001695397

> <concentration_mM>
10

> <volume_ul>
30

$$$$
